<?xml version="1.0" encoding="UTF-8"?>

<routes xmlns:xsi="http://www.w3.org/2001/XMLSchema-instance" xsi:noNamespaceSchemaLocation="http://sumo.dlr.de/xsd/routes_file.xsd">
    <vType id="DefaultPerson" vClass="pedestrian"/>
    <person id="0" type="DefaultPerson" depart="10.00">
        <walk edges="-1349332095 -57371455#2"/>
    </person>
</routes>
