<?xml version="1.0" encoding="UTF-8"?>

<sumoConfiguration xmlns:xsi="http://www.w3.org/2001/XMLSchema-instance" xsi:noNamespaceSchemaLocation="http://sumo.dlr.de/xsd/sumoConfiguration.xsd">
    <input>
        <net-file value="sumo-taxi.net.xml"/>
        <route-files value="sumo-taxi.rou.xml"/>
    </input>
    <processing>
        <device.taxi.dispatch-algorithm value="traci"/>
    </processing>
</sumoConfiguration>