<?xml version="1.0" ?>
<!-- Generated by MOSAIC scenario-convert 18.0 -->
<routes>
	<vType id="default" length="7.5" maxSpeed="50" minGap="2.0" carFollowModel="Krauss" accel="0.80" decel="4.5" sigma="0.5" tau="1"/>
	<route id="1" edges="638250157_9323935_6015549890 638250144_6015549890_9323941 149759000_9323941_1627094462 242359993_1627094462_26969554 28637317_26969554_4631821372 711226347_4631821372_267989899 711226348_267989899_11409181643 1230272497_11409181643_11409181645 1230272497_11409181645_11409181637 711226346_11409181637_6687013229 56982684_6687013229_6687013226 56982684_6687013226_6687013228 56982684_6687013228_31276999 56982660_31276999_300473065 32524392_300473065_370685073 32524392_370685073_370685089 32524392_370685089_10840350430 32524392_10840350430_10840350429 32524392_10840350429_29093024 1292444654_29093024_300473057 1292444654_300473057_31276992 1292444654_31276992_29402376 149758956_29402376_609079379 149758956_609079379_1627094657 327060232_1627094657_4735145765 480522568_4735145765_29092984 480522568_29092984_4735145765" />
</routes>