<?xml version="1.0" encoding="UTF-8"?>

<!-- generated on 2024-09-05 16:47:54 by Eclipse SUMO netconvert Version 1.20.0
<configuration xmlns:xsi="http://www.w3.org/2001/XMLSchema-instance" xsi:noNamespaceSchemaLocation="http://sumo.dlr.de/xsd/netconvertConfiguration.xsd">

    <input>
        <node-files value="C:\Users\geo27059\Documents\Code\scenario-convert\Autolingen\sumo\Autolingen.nod.xml"/>
        <edge-files value="C:\Users\geo27059\Documents\Code\scenario-convert\Autolingen\sumo\Autolingen.edg.xml"/>
        <connection-files value="C:\Users\geo27059\Documents\Code\scenario-convert\Autolingen\sumo\Autolingen.con.xml"/>
    </input>

    <output>
        <output-file value="C:\Users\geo27059\Documents\Code\scenario-convert\Autolingen\sumo\Autolingen.net.xml"/>
    </output>

</configuration>
-->

<net version="1.20" junctionCornerDetail="5" limitTurnSpeed="5.50" xmlns:xsi="http://www.w3.org/2001/XMLSchema-instance" xsi:noNamespaceSchemaLocation="http://sumo.dlr.de/xsd/net_file.xsd">

    <location netOffset="-394525.82,-5274192.16" convBoundary="0.00,0.00,3740.45,2850.80" origBoundary="394525.82,5274192.16,398266.27,5277042.96" projParameter="+proj=utm +zone=32  +ellps=WGS84 +datum=WGS84 +units=m +no_defs"/>

    <edge id=":1066624051_0" function="internal">
        <lane id=":1066624051_0_0" index="0" speed="3.65" length="4.67" shape="2282.26,825.44 2282.94,824.16 2283.69,823.69 2284.53,824.01 2285.44,825.12"/>
    </edge>
    <edge id=":1067692664_0" function="internal">
        <lane id=":1067692664_0_0" index="0" speed="8.33" length="3.13" shape="780.72,1391.91 783.85,1391.83"/>
    </edge>
    <edge id=":1067692664_1" function="internal">
        <lane id=":1067692664_1_0" index="0" speed="3.65" length="2.34" shape="786.44,1389.95 786.50,1391.39 786.09,1392.18"/>
    </edge>
    <edge id=":1067692664_2" function="internal">
        <lane id=":1067692664_2_0" index="0" speed="3.65" length="2.34" shape="786.09,1392.18 785.21,1392.33 783.85,1391.83"/>
    </edge>
    <edge id=":1067704559_0" function="internal">
        <lane id=":1067704559_0_0" index="0" speed="13.89" length="7.84" shape="973.91,1382.73 972.04,1375.11"/>
    </edge>
    <edge id=":1067704559_1" function="internal">
        <lane id=":1067704559_1_0" index="0" speed="3.65" length="1.44" shape="973.91,1382.73 974.43,1381.38"/>
    </edge>
    <edge id=":1067704559_5" function="internal">
        <lane id=":1067704559_5_0" index="0" speed="3.65" length="3.23" shape="974.43,1381.38 975.12,1380.82 975.99,1381.03 977.04,1382.03"/>
    </edge>
    <edge id=":1067704559_2" function="internal">
        <lane id=":1067704559_2_0" index="0" speed="13.89" length="8.39" shape="975.14,1374.29 976.25,1376.56 977.70,1377.79 979.13,1379.03 980.16,1381.32"/>
        <lane id=":1067704559_2_1" index="1" speed="13.89" length="8.39" shape="975.14,1374.29 977.04,1382.03"/>
    </edge>
    <edge id=":1067704559_4" function="internal">
        <lane id=":1067704559_4_0" index="0" speed="3.65" length="1.44" shape="975.14,1374.29 974.67,1375.66"/>
    </edge>
    <edge id=":1067704559_6" function="internal">
        <lane id=":1067704559_6_0" index="0" speed="3.65" length="3.23" shape="974.67,1375.66 974.00,1376.25 973.13,1376.07 972.04,1375.11"/>
    </edge>
    <edge id=":1067704574_0" function="internal">
        <lane id=":1067704574_0_0" index="0" speed="19.44" length="0.31" shape="822.69,1478.54 822.35,1478.62"/>
        <lane id=":1067704574_0_1" index="1" speed="19.44" length="0.31" shape="821.86,1475.45 821.60,1475.51"/>
    </edge>
    <edge id=":1067704574_2" function="internal">
        <lane id=":1067704574_2_0" index="0" speed="3.65" length="2.34" shape="821.86,1475.45 820.50,1474.98 819.91,1474.31"/>
    </edge>
    <edge id=":1067704574_5" function="internal">
        <lane id=":1067704574_5_0" index="0" speed="3.65" length="2.34" shape="819.91,1474.31 820.09,1473.44 821.04,1472.35"/>
    </edge>
    <edge id=":1067704574_3" function="internal">
        <lane id=":1067704574_3_0" index="0" speed="19.44" length="0.19" shape="820.85,1472.40 821.04,1472.35"/>
    </edge>
    <edge id=":1067704574_4" function="internal">
        <lane id=":1067704574_4_0" index="0" speed="3.65" length="2.34" shape="820.85,1472.40 822.21,1472.90 822.78,1473.58"/>
    </edge>
    <edge id=":1067704574_6" function="internal">
        <lane id=":1067704574_6_0" index="0" speed="3.65" length="2.34" shape="822.78,1473.58 822.58,1474.45 821.60,1475.51"/>
    </edge>
    <edge id=":1067716447_0" function="internal">
        <lane id=":1067716447_0_0" index="0" speed="8.33" length="7.76" shape="994.25,1456.18 993.60,1453.97 993.10,1452.48 992.53,1451.01 991.70,1448.86"/>
    </edge>
    <edge id=":1067716447_1" function="internal">
        <lane id=":1067716447_1_0" index="0" speed="3.65" length="1.44" shape="994.25,1456.18 994.70,1454.81"/>
    </edge>
    <edge id=":1067716447_6" function="internal">
        <lane id=":1067716447_6_0" index="0" speed="3.65" length="3.23" shape="994.70,1454.81 995.36,1454.21 996.24,1454.38 997.33,1455.32"/>
    </edge>
    <edge id=":1067716447_2" function="internal">
        <lane id=":1067716447_2_0" index="0" speed="8.33" length="8.03" shape="998.71,1447.64 997.83,1449.87 997.16,1451.46 996.93,1453.05 997.33,1455.32"/>
    </edge>
    <edge id=":1067716447_3" function="internal">
        <lane id=":1067716447_3_0" index="0" speed="5.98" length="12.52" shape="998.71,1447.64 996.96,1451.65 995.21,1453.19 993.46,1452.26 991.70,1448.86"/>
    </edge>
    <edge id=":1067716447_4" function="internal">
        <lane id=":1067716447_4_0" index="0" speed="8.33" length="8.05" shape="994.69,1447.72 995.55,1449.95 996.14,1451.48 996.66,1453.02 997.33,1455.32"/>
    </edge>
    <edge id=":1067716447_5" function="internal">
        <lane id=":1067716447_5_0" index="0" speed="3.65" length="1.44" shape="994.69,1447.72 994.37,1449.13"/>
    </edge>
    <edge id=":1067716447_7" function="internal">
        <lane id=":1067716447_7_0" index="0" speed="3.65" length="3.23" shape="994.37,1449.13 993.76,1449.78 992.87,1449.69 991.70,1448.86"/>
    </edge>
    <edge id=":1067737355_0" function="internal">
        <lane id=":1067737355_0_0" index="0" speed="13.89" length="3.34" shape="949.11,1292.03 948.84,1291.08 948.62,1290.44 948.35,1289.81 947.91,1288.93"/>
    </edge>
    <edge id=":1067737355_1" function="internal">
        <lane id=":1067737355_1_0" index="0" speed="3.65" length="1.44" shape="949.11,1292.03 949.56,1290.66"/>
    </edge>
    <edge id=":1067737355_4" function="internal">
        <lane id=":1067737355_4_0" index="0" speed="3.65" length="3.23" shape="949.56,1290.66 950.22,1290.06 951.10,1290.23 952.19,1291.16"/>
    </edge>
    <edge id=":1067737355_2" function="internal">
        <lane id=":1067737355_2_0" index="0" speed="13.89" length="3.34" shape="951.64,1287.88 951.70,1288.87 951.78,1289.54 951.93,1290.21 952.19,1291.16"/>
    </edge>
    <edge id=":1067737355_3" function="internal">
        <lane id=":1067737355_3_0" index="0" speed="5.24" length="3.67" shape="951.64,1287.88 951.62,1291.55"/>
    </edge>
    <edge id=":1067737355_5" function="internal">
        <lane id=":1067737355_5_0" index="0" speed="5.24" length="6.69" shape="951.62,1291.55 950.99,1292.94 949.75,1292.07 947.91,1288.93"/>
    </edge>
    <edge id=":1067737463_0" function="internal">
        <lane id=":1067737463_0_0" index="0" speed="13.89" length="3.43" shape="975.38,1246.76 974.40,1247.04 973.74,1247.28 973.12,1247.60 972.25,1248.12"/>
    </edge>
    <edge id=":1067737463_1" function="internal">
        <lane id=":1067737463_1_0" index="0" speed="3.65" length="1.44" shape="975.38,1246.76 974.01,1246.31"/>
    </edge>
    <edge id=":1067737463_4" function="internal">
        <lane id=":1067737463_4_0" index="0" speed="3.65" length="3.23" shape="974.01,1246.31 973.41,1245.65 973.58,1244.77 974.52,1243.68"/>
    </edge>
    <edge id=":1067737463_2" function="internal">
        <lane id=":1067737463_2_0" index="0" speed="13.89" length="3.44" shape="971.15,1244.27 972.17,1244.19 972.86,1244.10 973.54,1243.95 974.52,1243.68"/>
    </edge>
    <edge id=":1067737463_3" function="internal">
        <lane id=":1067737463_3_0" index="0" speed="5.08" length="3.36" shape="971.15,1244.27 974.36,1244.29 974.49,1244.36"/>
    </edge>
    <edge id=":1067737463_5" function="internal">
        <lane id=":1067737463_5_0" index="0" speed="5.08" length="5.99" shape="974.49,1244.36 975.62,1244.94 974.91,1246.22 972.25,1248.12"/>
    </edge>
    <edge id=":1067770030_0" function="internal">
        <lane id=":1067770030_0_0" index="0" speed="3.65" length="4.67" shape="932.64,454.60 933.64,453.55 934.49,453.29 935.21,453.82 935.80,455.14"/>
    </edge>
    <edge id=":1069458630_0" function="internal">
        <lane id=":1069458630_0_0" index="0" speed="19.44" length="13.02" shape="1297.89,1296.52 1297.70,1299.92 1298.06,1302.95 1298.70,1305.98 1299.36,1309.38"/>
    </edge>
    <edge id=":1069458630_1" function="internal">
        <lane id=":1069458630_1_0" index="0" speed="19.44" length="13.02" shape="1297.89,1296.52 1295.72,1309.35"/>
    </edge>
    <edge id=":1069458630_2" function="internal">
        <lane id=":1069458630_2_0" index="0" speed="3.65" length="1.44" shape="1297.89,1296.52 1296.92,1297.59"/>
    </edge>
    <edge id=":1069458630_4" function="internal">
        <lane id=":1069458630_4_0" index="0" speed="3.65" length="3.23" shape="1296.92,1297.59 1296.07,1297.86 1295.34,1297.34 1294.73,1296.04"/>
    </edge>
    <edge id=":1069458630_3" function="internal">
        <lane id=":1069458630_3_0" index="0" speed="19.44" length="12.96" shape="1292.57,1308.81 1294.73,1296.04"/>
    </edge>
    <edge id=":10840350429_0" function="internal">
        <lane id=":10840350429_0_0" index="0" speed="13.89" length="0.30" shape="2097.86,2050.65 2097.57,2050.61"/>
    </edge>
    <edge id=":10840350429_1" function="internal">
        <lane id=":10840350429_1_0" index="0" speed="3.65" length="2.34" shape="2097.86,2050.65 2096.78,2049.70 2096.48,2048.85"/>
    </edge>
    <edge id=":10840350429_4" function="internal">
        <lane id=":10840350429_4_0" index="0" speed="3.65" length="2.34" shape="2096.48,2048.85 2096.98,2048.11 2098.28,2047.47"/>
    </edge>
    <edge id=":10840350429_2" function="internal">
        <lane id=":10840350429_2_0" index="0" speed="13.89" length="0.30" shape="2097.98,2047.43 2098.28,2047.47"/>
    </edge>
    <edge id=":10840350429_3" function="internal">
        <lane id=":10840350429_3_0" index="0" speed="3.65" length="2.34" shape="2097.98,2047.43 2099.06,2048.38 2099.36,2049.23"/>
    </edge>
    <edge id=":10840350429_5" function="internal">
        <lane id=":10840350429_5_0" index="0" speed="3.65" length="2.34" shape="2099.36,2049.23 2098.86,2049.97 2097.57,2050.61"/>
    </edge>
    <edge id=":10840350430_0" function="internal">
        <lane id=":10840350430_0_0" index="0" speed="13.89" length="3.01" shape="2091.72,2049.79 2094.70,2050.24"/>
    </edge>
    <edge id=":10840350430_1" function="internal">
        <lane id=":10840350430_1_0" index="0" speed="3.65" length="2.34" shape="2091.72,2049.79 2090.65,2048.83 2090.38,2047.97"/>
    </edge>
    <edge id=":10840350430_4" function="internal">
        <lane id=":10840350430_4_0" index="0" speed="3.65" length="2.34" shape="2090.38,2047.97 2090.89,2047.24 2092.20,2046.63"/>
    </edge>
    <edge id=":10840350430_2" function="internal">
        <lane id=":10840350430_2_0" index="0" speed="13.89" length="3.01" shape="2095.17,2047.07 2092.20,2046.63"/>
    </edge>
    <edge id=":10840350430_3" function="internal">
        <lane id=":10840350430_3_0" index="0" speed="3.65" length="2.34" shape="2095.17,2047.07 2096.24,2048.04 2096.52,2048.89"/>
    </edge>
    <edge id=":10840350430_5" function="internal">
        <lane id=":10840350430_5_0" index="0" speed="3.65" length="2.34" shape="2096.52,2048.89 2096.01,2049.62 2094.70,2050.24"/>
    </edge>
    <edge id=":11409181637_0" function="internal">
        <lane id=":11409181637_0_0" index="0" speed="10.13" length="9.66" shape="1752.76,1858.54 1750.95,1857.12 1748.87,1856.12 1746.51,1855.56 1743.89,1855.42"/>
        <lane id=":11409181637_0_1" index="1" speed="15.28" length="13.90" shape="1755.00,1856.25 1751.88,1853.79 1749.25,1852.87 1746.29,1852.54 1742.19,1851.85"/>
    </edge>
    <edge id=":11409181637_2" function="internal">
        <lane id=":11409181637_2_0" index="0" speed="7.07" length="8.01" shape="1756.82,1846.48 1756.01,1848.78 1755.80,1850.79 1756.21,1852.52 1757.23,1853.96"/>
    </edge>
    <edge id=":11409181637_3" function="internal">
        <lane id=":11409181637_3_0" index="0" speed="10.59" length="16.53" shape="1756.82,1846.48 1754.52,1850.29 1751.59,1853.06 1748.05,1854.77 1743.89,1855.42"/>
        <lane id=":11409181637_3_1" index="1" speed="8.27" length="16.53" shape="1753.93,1844.13 1752.70,1848.44 1750.33,1851.16 1746.83,1852.30 1742.19,1851.85"/>
    </edge>
    <edge id=":11409181643_0" function="internal">
        <lane id=":11409181643_0_0" index="0" speed="11.73" length="10.11" shape="1735.58,1827.09 1737.82,1828.97 1739.68,1829.83 1741.80,1830.13 1744.79,1830.35"/>
        <lane id=":11409181643_0_1" index="1" speed="15.28" length="13.94" shape="1733.36,1829.39 1736.55,1831.73 1739.28,1832.42 1742.28,1832.65 1746.33,1833.60"/>
    </edge>
    <edge id=":11409181643_2" function="internal">
        <lane id=":11409181643_2_0" index="0" speed="8.32" length="8.47" shape="1732.55,1839.73 1732.85,1837.10 1732.71,1834.88 1732.14,1833.08 1731.14,1831.69"/>
    </edge>
    <edge id=":11409181643_3" function="internal">
        <lane id=":11409181643_3_0" index="0" speed="9.07" length="16.71" shape="1732.55,1839.73 1734.01,1835.28 1736.54,1832.23 1740.13,1830.59 1744.79,1830.35"/>
        <lane id=":11409181643_3_1" index="1" speed="8.05" length="16.71" shape="1735.43,1841.83 1736.88,1837.05 1739.18,1834.09 1742.33,1832.94 1746.33,1833.60"/>
    </edge>
    <edge id=":11409181645_0" function="internal">
        <lane id=":11409181645_0_0" index="0" speed="7.49" length="6.44" shape="1756.94,1834.75 1756.65,1835.45 1756.57,1836.74 1756.72,1838.62 1757.09,1841.10"/>
    </edge>
    <edge id=":11409181645_1" function="internal">
        <lane id=":11409181645_1_0" index="0" speed="6.67" length="6.36" shape="1748.57,1830.99 1749.82,1831.47 1751.70,1832.14 1753.54,1832.61 1754.66,1832.50"/>
    </edge>
    <edge id=":11409181645_2" function="internal">
        <lane id=":11409181645_2_0" index="0" speed="10.00" length="13.08" shape="1748.57,1830.99 1751.81,1832.58 1754.31,1834.79 1756.07,1837.63 1757.09,1841.10"/>
        <lane id=":11409181645_2_1" index="1" speed="9.42" length="13.08" shape="1746.52,1833.66 1749.41,1835.07 1751.63,1837.02 1753.19,1839.50 1754.09,1842.53"/>
    </edge>
    <edge id=":11804801925_0" function="internal">
        <lane id=":11804801925_0_0" index="0" speed="33.33" length="0.30" shape="1887.47,1678.13 1887.17,1678.08"/>
        <lane id=":11804801925_0_1" index="1" speed="33.33" length="0.30" shape="1888.04,1674.98 1887.75,1674.93"/>
    </edge>
    <edge id=":1328889731_0" function="internal">
        <lane id=":1328889731_0_0" index="0" speed="8.33" length="3.34" shape="1754.73,1836.98 1757.08,1834.60"/>
    </edge>
    <edge id=":1328889731_1" function="internal">
        <lane id=":1328889731_1_0" index="0" speed="3.65" length="2.34" shape="1754.73,1836.98 1753.33,1837.32 1752.47,1837.07"/>
    </edge>
    <edge id=":1328889731_4" function="internal">
        <lane id=":1328889731_4_0" index="0" speed="3.65" length="2.34" shape="1752.47,1837.07 1752.15,1836.24 1752.38,1834.81"/>
    </edge>
    <edge id=":1328889731_2" function="internal">
        <lane id=":1328889731_2_0" index="0" speed="8.33" length="3.44" shape="1754.80,1832.36 1752.38,1834.81"/>
    </edge>
    <edge id=":1328889731_3" function="internal">
        <lane id=":1328889731_3_0" index="0" speed="3.65" length="2.34" shape="1754.80,1832.36 1756.21,1832.07 1757.06,1832.34"/>
    </edge>
    <edge id=":1328889731_5" function="internal">
        <lane id=":1328889731_5_0" index="0" speed="3.65" length="2.34" shape="1757.06,1832.34 1757.35,1833.19 1757.08,1834.60"/>
    </edge>
    <edge id=":1531251439_0" function="internal">
        <lane id=":1531251439_0_0" index="0" speed="5.00" length="6.56" shape="1610.69,2151.06 1608.56,2150.03 1606.99,2149.80 1605.98,2150.37 1605.53,2151.75"/>
    </edge>
    <edge id=":1531251439_1" function="internal">
        <lane id=":1531251439_1_0" index="0" speed="8.33" length="14.12" shape="1610.69,2151.06 1598.72,2143.57"/>
    </edge>
    <edge id=":1531251439_2" function="internal">
        <lane id=":1531251439_2_0" index="0" speed="3.65" length="1.44" shape="1610.69,2151.06 1610.07,2149.76"/>
    </edge>
    <edge id=":1531251439_9" function="internal">
        <lane id=":1531251439_9_0" index="0" speed="3.65" length="3.23" shape="1610.07,2149.76 1610.13,2148.87 1610.89,2148.39 1612.33,2148.32"/>
    </edge>
    <edge id=":1531251439_3" function="internal">
        <lane id=":1531251439_3_0" index="0" speed="8.33" length="13.95" shape="1600.50,2140.91 1612.33,2148.32"/>
    </edge>
    <edge id=":1531251439_4" function="internal">
        <lane id=":1531251439_4_0" index="0" speed="8.33" length="3.70" shape="1600.50,2140.91 1602.96,2143.02 1603.21,2143.41"/>
    </edge>
    <edge id=":1531251439_5" function="internal">
        <lane id=":1531251439_5_0" index="0" speed="3.65" length="1.44" shape="1600.50,2140.91 1601.05,2142.24"/>
    </edge>
    <edge id=":1531251439_10" function="internal">
        <lane id=":1531251439_10_0" index="0" speed="8.33" length="8.88" shape="1603.21,2143.41 1604.62,2145.53 1605.47,2148.44 1605.53,2151.75"/>
    </edge>
    <edge id=":1531251439_11" function="internal">
        <lane id=":1531251439_11_0" index="0" speed="3.65" length="3.23" shape="1601.05,2142.24 1600.94,2143.13 1600.16,2143.57 1598.72,2143.57"/>
    </edge>
    <edge id=":1531251439_6" function="internal">
        <lane id=":1531251439_6_0" index="0" speed="8.11" length="9.12" shape="1602.35,2151.43 1602.31,2149.03 1601.69,2146.92 1600.49,2145.10 1598.72,2143.57"/>
    </edge>
    <edge id=":1531251439_7" function="internal">
        <lane id=":1531251439_7_0" index="0" speed="6.86" length="13.59" shape="1602.35,2151.43 1603.28,2148.03 1605.26,2146.37 1608.27,2146.47 1612.33,2148.32"/>
    </edge>
    <edge id=":1531251439_8" function="internal">
        <lane id=":1531251439_8_0" index="0" speed="3.65" length="4.67" shape="1602.35,2151.43 1603.26,2150.32 1604.09,2150.00 1604.85,2150.47 1605.53,2151.75"/>
    </edge>
    <edge id=":1531251443_0" function="internal">
        <lane id=":1531251443_0_0" index="0" speed="8.33" length="14.08" shape="1610.60,2158.63 1607.03,2158.15 1603.61,2157.93 1600.17,2157.85 1596.56,2157.84"/>
    </edge>
    <edge id=":1531251443_1" function="internal">
        <lane id=":1531251443_1_0" index="0" speed="7.60" length="4.54" shape="1610.60,2158.63 1606.78,2157.62 1606.27,2157.34"/>
    </edge>
    <edge id=":1531251443_2" function="internal">
        <lane id=":1531251443_2_0" index="0" speed="3.72" length="1.78" shape="1610.60,2158.63 1609.20,2158.01 1609.06,2157.81"/>
    </edge>
    <edge id=":1531251443_9" function="internal">
        <lane id=":1531251443_9_0" index="0" speed="7.60" length="7.46" shape="1606.27,2157.34 1604.13,2156.12 1602.64,2154.13 1602.33,2151.63"/>
    </edge>
    <edge id=":1531251443_10" function="internal">
        <lane id=":1531251443_10_0" index="0" speed="3.72" length="3.18" shape="1609.06,2157.81 1608.64,2157.24 1608.92,2156.34 1610.03,2155.29"/>
    </edge>
    <edge id=":1531251443_3" function="internal">
        <lane id=":1531251443_3_0" index="0" speed="5.64" length="6.17" shape="1605.51,2151.94 1605.70,2153.10 1606.52,2154.04 1607.96,2154.77 1610.03,2155.29"/>
    </edge>
    <edge id=":1531251443_4" function="internal">
        <lane id=":1531251443_4_0" index="0" speed="7.63" length="11.91" shape="1605.51,2151.94 1604.73,2154.54 1602.98,2156.38 1600.26,2157.49 1596.56,2157.84"/>
    </edge>
    <edge id=":1531251443_5" function="internal">
        <lane id=":1531251443_5_0" index="0" speed="3.65" length="4.67" shape="1605.51,2151.94 1604.60,2153.06 1603.76,2153.38 1603.01,2152.91 1602.33,2151.63"/>
    </edge>
    <edge id=":1531251443_6" function="internal">
        <lane id=":1531251443_6_0" index="0" speed="6.05" length="7.13" shape="1596.57,2154.64 1598.98,2154.46 1600.74,2153.90 1601.85,2152.96 1602.33,2151.63"/>
    </edge>
    <edge id=":1531251443_7" function="internal">
        <lane id=":1531251443_7_0" index="0" speed="8.33" length="13.49" shape="1596.57,2154.64 1600.09,2154.63 1603.33,2154.65 1606.55,2154.83 1610.03,2155.29"/>
    </edge>
    <edge id=":1531251443_8" function="internal">
        <lane id=":1531251443_8_0" index="0" speed="3.65" length="1.44" shape="1596.57,2154.64 1597.77,2155.45"/>
    </edge>
    <edge id=":1531251443_11" function="internal">
        <lane id=":1531251443_11_0" index="0" speed="3.65" length="3.23" shape="1597.77,2155.45 1598.17,2156.25 1597.76,2157.05 1596.56,2157.84"/>
    </edge>
    <edge id=":1531251445_0" function="internal">
        <lane id=":1531251445_0_0" index="0" speed="8.33" length="16.70" shape="1627.23,2160.93 1623.55,2159.61 1619.25,2159.15 1614.84,2159.02 1610.80,2158.66"/>
    </edge>
    <edge id=":1531251445_1" function="internal">
        <lane id=":1531251445_1_0" index="0" speed="8.33" length="19.06" shape="1627.23,2160.93 1610.86,2151.17"/>
    </edge>
    <edge id=":1531251445_2" function="internal">
        <lane id=":1531251445_2_0" index="0" speed="3.65" length="1.44" shape="1627.23,2160.93 1626.61,2159.63"/>
    </edge>
    <edge id=":1531251445_9" function="internal">
        <lane id=":1531251445_9_0" index="0" speed="3.65" length="3.23" shape="1626.61,2159.63 1626.68,2158.73 1627.43,2158.25 1628.87,2158.18"/>
    </edge>
    <edge id=":1531251445_3" function="internal">
        <lane id=":1531251445_3_0" index="0" speed="8.33" length="19.06" shape="1612.50,2148.42 1628.87,2158.18"/>
    </edge>
    <edge id=":1531251445_4" function="internal">
        <lane id=":1531251445_4_0" index="0" speed="5.98" length="2.42" shape="1612.50,2148.42 1614.10,2150.24"/>
    </edge>
    <edge id=":1531251445_5" function="internal">
        <lane id=":1531251445_5_0" index="0" speed="3.65" length="1.44" shape="1612.50,2148.42 1613.12,2149.72"/>
    </edge>
    <edge id=":1531251445_10" function="internal">
        <lane id=":1531251445_10_0" index="0" speed="5.98" length="11.88" shape="1614.10,2150.24 1615.12,2151.40 1615.64,2155.02 1614.16,2157.89 1610.80,2158.66"/>
    </edge>
    <edge id=":1531251445_11" function="internal">
        <lane id=":1531251445_11_0" index="0" speed="3.65" length="3.23" shape="1613.12,2149.72 1613.05,2150.61 1612.30,2151.09 1610.86,2151.17"/>
    </edge>
    <edge id=":1531251445_6" function="internal">
        <lane id=":1531251445_6_0" index="0" speed="5.54" length="12.02" shape="1610.23,2155.32 1614.27,2155.75 1615.73,2155.20 1614.59,2153.67 1610.86,2151.17"/>
    </edge>
    <edge id=":1531251445_7" function="internal">
        <lane id=":1531251445_7_0" index="0" speed="8.33" length="18.96" shape="1610.23,2155.32 1614.62,2155.76 1619.79,2156.11 1624.84,2156.77 1628.87,2158.18"/>
    </edge>
    <edge id=":1531251445_8" function="internal">
        <lane id=":1531251445_8_0" index="0" speed="3.72" length="4.96" shape="1610.23,2155.32 1611.63,2155.94 1612.19,2156.71 1611.91,2157.61 1610.80,2158.66"/>
    </edge>
    <edge id=":1531251472_0" function="internal">
        <lane id=":1531251472_0_0" index="0" speed="3.65" length="4.67" shape="1482.64,2167.19 1481.30,2166.67 1480.74,2165.97 1480.96,2165.10 1481.96,2164.07"/>
    </edge>
    <edge id=":1531251505_0" function="internal">
        <lane id=":1531251505_0_0" index="0" speed="3.65" length="4.67" shape="1485.59,2225.72 1484.28,2225.10 1483.78,2224.37 1484.06,2223.52 1485.13,2222.56"/>
    </edge>
    <edge id=":1531251544_0" function="internal">
        <lane id=":1531251544_0_0" index="0" speed="6.97" length="10.32" shape="1665.96,2258.43 1663.91,2256.77 1661.71,2256.21 1659.36,2256.76 1656.85,2258.40"/>
    </edge>
    <edge id=":1531251544_1" function="internal">
        <lane id=":1531251544_1_0" index="0" speed="8.33" length="15.27" shape="1665.96,2258.43 1663.32,2255.70 1660.45,2253.15 1657.41,2250.79 1654.27,2248.66"/>
    </edge>
    <edge id=":1531251544_2" function="internal">
        <lane id=":1531251544_2_0" index="0" speed="7.86" length="14.51" shape="1665.96,2258.43 1663.74,2255.07 1663.20,2251.88 1664.35,2248.86 1667.19,2246.00"/>
    </edge>
    <edge id=":1531251544_3" function="internal">
        <lane id=":1531251544_3_0" index="0" speed="3.65" length="4.67" shape="1665.96,2258.43 1665.76,2257.00 1666.09,2256.17 1666.95,2255.93 1668.35,2256.30"/>
    </edge>
    <edge id=":1531251544_4" function="internal">
        <lane id=":1531251544_4_0" index="0" speed="6.34" length="9.04" shape="1669.11,2248.56 1667.35,2250.34 1666.63,2252.22 1666.96,2254.21 1668.35,2256.30"/>
    </edge>
    <edge id=":1531251544_5" function="internal">
        <lane id=":1531251544_5_0" index="0" speed="8.33" length="15.72" shape="1669.11,2248.56 1656.85,2258.40"/>
    </edge>
    <edge id=":1531251544_6" function="internal">
        <lane id=":1531251544_6_0" index="0" speed="8.33" length="4.00" shape="1669.11,2248.56 1665.62,2250.50"/>
    </edge>
    <edge id=":1531251544_7" function="internal">
        <lane id=":1531251544_7_0" index="0" speed="3.65" length="1.44" shape="1669.11,2248.56 1667.67,2248.64"/>
    </edge>
    <edge id=":1531251544_16" function="internal">
        <lane id=":1531251544_16_0" index="0" speed="8.33" length="11.89" shape="1665.62,2250.50 1661.98,2251.17 1658.19,2250.55 1654.27,2248.66"/>
    </edge>
    <edge id=":1531251544_17" function="internal">
        <lane id=":1531251544_17_0" index="0" speed="3.65" length="3.23" shape="1667.67,2248.64 1666.87,2248.25 1666.71,2247.37 1667.19,2246.00"/>
    </edge>
    <edge id=":1531251544_8" function="internal">
        <lane id=":1531251544_8_0" index="0" speed="8.33" length="11.99" shape="1655.98,2245.96 1658.98,2247.42 1661.84,2247.91 1664.58,2247.44 1667.19,2246.00"/>
    </edge>
    <edge id=":1531251544_9" function="internal">
        <lane id=":1531251544_9_0" index="0" speed="8.33" length="16.16" shape="1655.98,2245.96 1659.23,2248.18 1662.50,2250.73 1665.61,2253.48 1668.35,2256.30"/>
    </edge>
    <edge id=":1531251544_10" function="internal">
        <lane id=":1531251544_10_0" index="0" speed="7.57" length="15.49" shape="1655.98,2245.96 1659.37,2248.85 1660.64,2251.89 1659.80,2255.07 1656.85,2258.40"/>
    </edge>
    <edge id=":1531251544_11" function="internal">
        <lane id=":1531251544_11_0" index="0" speed="3.65" length="4.67" shape="1655.98,2245.96 1656.57,2247.28 1656.48,2248.17 1655.71,2248.63 1654.27,2248.66"/>
    </edge>
    <edge id=":1531251544_12" function="internal">
        <lane id=":1531251544_12_0" index="0" speed="5.95" length="9.09" shape="1654.78,2255.96 1656.51,2254.01 1657.01,2252.14 1656.26,2250.36 1654.27,2248.66"/>
    </edge>
    <edge id=":1531251544_13" function="internal">
        <lane id=":1531251544_13_0" index="0" speed="8.33" length="15.91" shape="1654.78,2255.96 1667.19,2246.00"/>
    </edge>
    <edge id=":1531251544_14" function="internal">
        <lane id=":1531251544_14_0" index="0" speed="8.33" length="4.83" shape="1654.78,2255.96 1658.46,2253.58 1658.90,2253.49"/>
    </edge>
    <edge id=":1531251544_15" function="internal">
        <lane id=":1531251544_15_0" index="0" speed="3.65" length="1.44" shape="1654.78,2255.96 1656.21,2255.80"/>
    </edge>
    <edge id=":1531251544_18" function="internal">
        <lane id=":1531251544_18_0" index="0" speed="8.33" length="10.56" shape="1658.90,2253.49 1661.95,2252.84 1665.25,2253.75 1668.35,2256.30"/>
    </edge>
    <edge id=":1531251544_19" function="internal">
        <lane id=":1531251544_19_0" index="0" speed="3.65" length="3.23" shape="1656.21,2255.80 1657.03,2256.15 1657.25,2257.02 1656.85,2258.40"/>
    </edge>
    <edge id=":1531251605_0" function="internal">
        <lane id=":1531251605_0_0" index="0" speed="3.65" length="4.67" shape="1764.70,2362.66 1764.79,2364.10 1764.40,2364.90 1763.52,2365.07 1762.16,2364.60"/>
    </edge>
    <edge id=":1535403010_0" function="internal">
        <lane id=":1535403010_0_0" index="0" speed="8.33" length="0.11" shape="1935.16,1761.98 1935.05,1761.97"/>
    </edge>
    <edge id=":1535403010_1" function="internal">
        <lane id=":1535403010_1_0" index="0" speed="3.65" length="2.34" shape="1935.16,1761.98 1934.06,1761.05 1933.75,1760.21"/>
    </edge>
    <edge id=":1535403010_4" function="internal">
        <lane id=":1535403010_4_0" index="0" speed="3.65" length="2.34" shape="1933.75,1760.21 1934.24,1759.46 1935.52,1758.80"/>
    </edge>
    <edge id=":1535403010_2" function="internal">
        <lane id=":1535403010_2_0" index="0" speed="8.33" length="0.33" shape="1935.19,1758.78 1935.52,1758.80"/>
    </edge>
    <edge id=":1535403010_3" function="internal">
        <lane id=":1535403010_3_0" index="0" speed="3.65" length="2.34" shape="1935.19,1758.78 1936.35,1759.63 1936.72,1760.44"/>
    </edge>
    <edge id=":1535403010_5" function="internal">
        <lane id=":1535403010_5_0" index="0" speed="3.65" length="2.34" shape="1936.72,1760.44 1936.28,1761.23 1935.05,1761.97"/>
    </edge>
    <edge id=":1535403475_0" function="internal">
        <lane id=":1535403475_0_0" index="0" speed="3.65" length="4.67" shape="2315.53,1858.36 2314.85,1857.10 2314.87,1856.20 2315.59,1855.68 2317.03,1855.54"/>
    </edge>
    <edge id=":1535404429_0" function="internal">