<edges>
	<edge id="39117517_31447349_1067737463" from="31447349" to="1067737463" numLanes="1" shape="395537.91,5275427.09,0.00 395498.90,5275437.90,0.00" speed="13.89" />
	<edge id="37564441_30914873_30914874" from="30914873" to="30914874" numLanes="1" shape="396715.35,5275312.42,0.00 396688.68,5275319.90,0.00 396664.75,5275330.72,0.00 396643.57,5275342.67,0.00 396613.28,5275362.18,0.00" speed="8.33" />
	<edge id="47896381_609079394_609079363" from="609079394" to="609079363" numLanes="1" shape="397089.12,5276161.89,0.00 397083.07,5276156.02,0.00 397075.38,5276150.67,0.00 397041.13,5276126.78,0.00 397009.33,5276101.44,0.00 397005.56,5276098.43,0.00 396979.31,5276084.52,0.00 396956.62,5276076.74,0.00 396910.19,5276076.26,0.00" speed="8.33" />
	<edge id="319127924_3255369251_1067716447" from="3255369251" to="1067716447" numLanes="1" shape="395541.61,5275611.53,0.00 395531.51,5275622.66,0.00 395528.03,5275627.42,0.00 395525.99,5275630.78,0.00 395524.65,5275634.36,0.00 395520.94,5275645.52,0.00" speed="8.33" />
	<edge id="468705233_26969553_314742950" from="26969553" to="314742950" numLanes="1" shape="396129.83,5275894.44,0.00 396066.07,5275831.73,0.00" speed="19.44" />
	<edge id="638250143_6015549887_6015549893" from="6015549887" to="6015549893" numLanes="2" shape="396463.53,5275862.32,0.00 396518.59,5275873.56,0.00 396752.05,5275931.50,0.00 396867.47,5275965.42,0.00" speed="33.33" />
	<edge id="4662766_27124723_29653589" from="27124723" to="29653589" numLanes="1" shape="396126.12,5276181.55,0.00 396152.53,5276201.00,0.00 396170.93,5276215.34,0.00 396189.58,5276230.67,0.00 396207.31,5276249.15,0.00 396236.72,5276282.88,0.00 396244.33,5276295.87,0.00 396247.92,5276302.00,0.00 396266.61,5276324.87,0.00 396276.76,5276339.64,0.00 396281.37,5276348.66,0.00 396291.16,5276367.84,0.00 396299.05,5276384.33,0.00" speed="8.33" />
	<edge id="25099183_484528690_29763276" from="484528690" to="29763276" numLanes="1" shape="396983.46,5275386.56,0.00 396994.16,5275368.37,0.00 397006.92,5275335.13,0.00" speed="8.33" />
	<edge id="480525644_27357714_2206576618" from="27357714" to="2206576618" numLanes="1" shape="395833.42,5275414.69,0.00 395837.69,5275384.75,0.00 395840.14,5275362.89,0.00" speed="19.44" />
	<edge id="638250153_26969561_287146910" from="26969561" to="287146910" numLanes="2" shape="396972.64,5275997.50,0.00 397102.56,5276035.92,0.00 397165.57,5276052.66,0.00 397216.85,5276064.23,0.00" speed="33.33" />
	<edge id="32524392_29093024_10840350429" from="29093024" to="10840350429" numLanes="1" shape="396663.82,5276246.79,0.00 396654.17,5276245.35,0.00 396644.17,5276243.87,0.00 396623.74,5276241.20,0.00" speed="13.89" />
	<edge id="37562757_340999855_30914874" from="340999855" to="30914874" numLanes="1" shape="396693.23,5275434.82,0.00 396663.89,5275413.21,0.00 396633.19,5275390.61,0.00 396619.58,5275375.15,0.00 396613.28,5275362.18,0.00" speed="8.33" />
	<edge id="40202022_484528726_484528706" from="484528726" to="484528706" numLanes="1" shape="396789.53,5275311.30,0.00 396793.80,5275296.56,0.00 396800.67,5275290.01,0.00 396813.73,5275283.08,0.00 396817.58,5275278.65,0.00 396820.51,5275269.14,0.00 396822.70,5275257.71,0.00" speed="8.33" />
	<edge id="30911294_343634785_343634786" from="343634785" to="343634786" numLanes="1" shape="396763.32,5275485.04,0.00 396775.10,5275479.64,0.00 396827.25,5275479.54,0.00" speed="8.33" />
	<edge id="4870965_31447353_31447349" from="31447353" to="31447349" numLanes="1" shape="395583.81,5275415.56,0.00 395566.59,5275419.88,0.00 395537.91,5275427.09,0.00" speed="8.33" />
	<edge id="149758948_26968386_1627094321" from="26968386" to="1627094321" numLanes="1" shape="395763.92,5275579.73,0.00 395753.96,5275578.65,0.00 395743.38,5275577.88,0.00 395725.16,5275577.23,0.00 395705.17,5275577.57,0.00 395680.87,5275579.03,0.00 395662.87,5275581.45,0.00 395645.65,5275584.17,0.00" speed="13.89" />
	<edge id="56982684_6687013226_6687013229" from="6687013226" to="6687013229" numLanes="1" shape="396352.47,5276116.65,0.00 396336.63,5276101.27,0.00 396322.76,5276087.27,0.00 396311.68,5276076.32,0.00 396284.14,5276049.42,0.00" speed="13.89" />
	<edge id="37562758_449735037_30914873" from="449735037" to="30914873" numLanes="1" shape="396715.84,5275342.82,0.00 396715.35,5275312.42,0.00" speed="8.33" />
	<edge id="32805229_369664918_300473061" from="369664918" to="300473061" numLanes="1" shape="396355.29,5276344.03,0.00 396362.38,5276329.72,0.00" speed="8.33" />
	<edge id="56982684_6687013226_6687013228" from="6687013226" to="6687013228" numLanes="1" shape="396352.47,5276116.65,0.00 396354.93,5276119.00,0.00 396357.11,5276121.24,0.00" speed="13.89" />
	<edge id="37562758_449735032_449735035" from="449735032" to="449735035" numLanes="1" shape="396716.00,5275401.42,0.00 396715.94,5275371.70,0.00" speed="8.33" />
	<edge id="218184015_1535405924_31276992" from="1535405924" to="31276992" numLanes="1" shape="396763.01,5276193.52,0.00 396803.91,5276207.83,0.00 396819.09,5276215.09,0.00 396839.30,5276225.89,0.00 396889.67,5276252.18,0.00 396891.55,5276257.78,0.00" speed="8.33" />
	<edge id="5135402_353188534_2813572908" from="353188534" to="2813572908" numLanes="1" shape="396986.15,5275199.36,0.00 396998.80,5275199.62,0.00 397022.96,5275209.71,0.00 397040.73,5275221.26,0.00" speed="8.33" />
	<edge id="16973243_60193782_29763257" from="60193782" to="29763257" numLanes="1" shape="395844.08,5275207.92,0.00 395852.05,5275210.24,0.00 395860.00,5275211.77,0.00 395866.62,5275214.39,0.00 395871.95,5275219.11,0.00" speed="13.89" />
	<edge id="30797960_340999940_341000053" from="340999940" to="341000053" numLanes="1" shape="396843.39,5275413.85,0.00 396832.53,5275398.08,0.00 396823.06,5275390.10,0.00 396808.52,5275390.15,0.00" speed="8.33" />
	<edge id="642023479_26968394_313824851" from="26968394" to="313824851" numLanes="2" shape="395230.29,5275695.22,0.00 395185.85,5275707.59,0.00" speed="19.44" />
	<edge id="28568791_26968399_313822472" from="26968399" to="313822472" numLanes="3" shape="395061.15,5275714.61,0.00 395089.03,5275721.89,0.00 395133.46,5275730.86,0.00 395167.22,5275736.20,0.00 395203.34,5275741.51,0.00" speed="33.33" />
	<edge id="37562758_449735032_30914872" from="449735032" to="30914872" numLanes="1" shape="396716.00,5275401.42,0.00 396715.64,5275417.94,0.00" speed="8.33" />
	<edge id="177038840_31276959_27204812" from="31276959" to="27204812" numLanes="1" shape="396085.93,5276538.24,0.00 396065.41,5276539.76,0.00 396041.84,5276545.17,0.00 395987.11,5276563.52,0.00 395938.51,5276581.53,0.00 395910.80,5276592.12,0.00 395892.09,5276596.45,0.00 395869.53,5276597.27,0.00 395849.76,5276590.97,0.00 395832.48,5276582.02,0.00 395818.81,5276571.16,0.00 395810.59,5276562.48,0.00 395806.72,5276557.41,0.00 395804.11,5276552.18,0.00 395802.83,5276544.37,0.00 395804.08,5276536.47,0.00 395821.73,5276505.11,0.00 395826.18,5276498.70,0.00 395841.76,5276476.19,0.00 395855.88,5276450.54,0.00 395856.34,5276446.02,0.00 395856.52,5276444.34,0.00 395855.38,5276437.12,0.00 395846.30,5276410.73,0.00" speed="8.33" />
	<edge id="991667348_1328889731_31276996" from="1328889731" to="31276996" numLanes="1" shape="396279.29,5276028.15,0.00 396303.64,5276001.81,0.00" speed="8.33" />
	<edge id="149758976_26968379_26969550" from="26968379" to="26969550" numLanes="1" shape="395819.48,5275588.03,0.00 395822.53,5275594.35,0.00 395828.13,5275603.44,0.00 395832.21,5275610.11,0.00" speed="8.33" />
	<edge id="32524392_10840350429_10840350430" from="10840350429" to="10840350430" numLanes="1" shape="396623.74,5276241.20,0.00 396620.56,5276240.79,0.00 396617.63,5276240.35,0.00" speed="13.89" />
	<edge id="785833015_484528701_30914869" from="484528701" to="30914869" numLanes="1" shape="396896.42,5275370.67,0.00 396957.33,5275413.57,0.00" speed="8.33" />
	<edge id="5135398_340999940_1624766181" from="340999940" to="1624766181" numLanes="1" shape="396843.39,5275413.85,0.00 396862.05,5275402.17,0.00 396880.59,5275388.06,0.00" speed="8.33" />
	<edge id="1292444655_1328889731_11409181645" from="1328889731" to="11409181645" numLanes="1" shape="396279.29,5276028.15,0.00 396276.90,5276030.58,0.00" speed="8.33" />
	<edge id="151992693_1648242826_609079395" from="1648242826" to="609079395" numLanes="1" shape="397109.86,5276194.79,0.00 397100.85,5276181.52,0.00 397089.47,5276172.99,0.00" speed="8.33" />
	<edge id="327060232_1627094657_4735145765" from="1627094657" to="4735145765" numLanes="1" shape="397078.33,5276234.84,0.00 397143.00,5276225.93,0.00 397168.39,5276225.49,0.00 397190.90,5276229.76,0.00 397208.70,5276235.91,0.00 397225.18,5276244.47,0.00" speed="13.89" />
	<edge id="149759047_609079363_30914865" from="609079363" to="30914865" numLanes="1" shape="396910.19,5276076.26,0.00 396931.97,5276032.90,0.00 396941.04,5276013.35,0.00" speed="8.33" />
	<edge id="48557571_6045187266_313824851" from="6045187266" to="313824851" numLanes="2" shape="395056.76,5275743.26,0.00 395105.45,5275730.19,0.00 395185.85,5275707.59,0.00" speed="19.44" />
	<edge id="5135402_2813572908_353188534" from="2813572908" to="353188534" numLanes="1" shape="397040.73,5275221.26,0.00 397022.96,5275209.71,0.00 396998.80,5275199.62,0.00 396986.15,5275199.36,0.00" speed="8.33" />
	<edge id="32915674_370685074_370685073" from="370685074" to="370685073" numLanes="1" shape="396482.74,5276333.57,0.00 396494.75,5276302.03,0.00 396495.80,5276299.12,0.00 396512.38,5276253.05,0.00 396516.78,5276243.59,0.00 396523.20,5276224.99,0.00 396526.61,5276213.10,0.00" speed="8.33" />
	<edge id="40202040_29763241_1654603664" from="29763241" to="1654603664" numLanes="1" shape="396756.05,5275010.21,0.00 396762.65,5275069.64,0.00 396763.47,5275087.93,0.00 396763.11,5275110.85,0.00 396758.94,5275179.23,0.00" speed="8.33" />
	<edge id="149759047_609079363_30914863" from="609079363" to="30914863" numLanes="1" shape="396910.19,5276076.26,0.00 396895.94,5276127.04,0.00" speed="8.33" />
	<edge id="4662766_29653589_27124723" from="29653589" to="27124723" numLanes="1" shape="396299.05,5276384.33,0.00 396291.16,5276367.84,0.00 396281.37,5276348.66,0.00 396276.76,5276339.64,0.00 396266.61,5276324.87,0.00 396247.92,5276302.00,0.00 396244.33,5276295.87,0.00 396236.72,5276282.88,0.00 396207.31,5276249.15,0.00 396189.58,5276230.67,0.00 396170.93,5276215.34,0.00 396152.53,5276201.00,0.00 396126.12,5276181.55,0.00" speed="8.33" />
	<edge id="642023473_26968394_1627094366" from="26968394" to="1627094366" numLanes="1" shape="395230.29,5275695.22,0.00 395247.41,5275690.60,0.00" speed="19.44" />
	<edge id="4851874_31277004_31276998" from="31277004" to="31276998" numLanes="1" shape="396442.43,5275915.07,0.00 396403.70,5275952.36,0.00" speed="8.33" />
	<edge id="4847835_31241122_31241118" from="31241122" to="31241118" numLanes="1" shape="395761.43,5275714.75,0.00 395736.30,5275712.42,0.00 395709.05,5275709.91,0.00 395664.16,5275706.03,0.00 395657.12,5275705.42,0.00 395611.68,5275701.50,0.00 395595.16,5275700.08,0.00 395542.86,5275695.55,0.00 395531.05,5275687.19,0.00" speed="8.33" />
	<edge id="319127949_1067737355_31447351" from="1067737355" to="31447351" numLanes="1" shape="395475.97,5275481.98,0.00 395478.10,5275489.50,0.00 395479.01,5275492.74,0.00 395488.02,5275524.71,0.00 395491.60,5275537.40,0.00" speed="13.89" />
	<edge id="991667348_31276998_1535403010" from="31276998" to="1535403010" numLanes="1" shape="396403.70,5275952.36,0.00 396431.69,5275951.28,0.00 396461.05,5275952.54,0.00" speed="8.33" />
	<edge id="37564440_30914875_484528752" from="30914875" to="484528752" numLanes="1" shape="396483.64,5275449.33,0.00 396585.72,5275381.60,0.00" speed="8.33" />
	<edge id="263933585_493343919_60193777" from="493343919" to="60193777" numLanes="2" shape="395809.26,5275211.35,0.00 395812.02,5275207.27,0.00 395814.83,5275204.53,0.00 395818.70,5275202.12,0.00" speed="13.89" />
	<edge id="278571654_29763234_1654603664" from="29763234" to="1654603664" numLanes="1" shape="396769.09,5275200.29,0.00 396758.94,5275179.23,0.00" speed="8.33" />
	<edge id="309792448_7428475358_3151377224" from="7428475358" to="3151377224" numLanes="1" shape="395191.82,5274999.14,0.00 395171.98,5275034.09,0.00 395142.08,5275074.45,0.00 395130.33,5275090.68,0.00 395115.18,5275109.89,0.00 395109.22,5275114.27,0.00" speed="8.33" />
	<edge id="40202031_484528752_2685375050" from="484528752" to="2685375050" numLanes="1" shape="396585.72,5275381.60,0.00 396560.69,5275342.80,0.00 396556.15,5275345.47,0.00 396551.38,5275348.28,0.00 396545.56,5275348.06,0.00 396535.23,5275333.98,0.00" speed="8.33" />
	<edge id="5135402_353188017_30914901" from="353188017" to="30914901" numLanes="1" shape="396907.64,5275192.53,0.00 396930.85,5275200.98,0.00" speed="8.33" />
	<edge id="1031510357_484528670_29763276" from="484528670" to="29763276" numLanes="1" shape="396882.97,5275293.81,0.00 396909.11,5275307.67,0.00 396924.38,5275314.51,0.00 396941.46,5275320.40,0.00 397006.92,5275335.13,0.00" speed="13.89" />
	<edge id="183817568_60193788_27357721" from="60193788" to="27357721" numLanes="1" shape="395841.63,5275236.08,0.00 395840.38,5275244.62,0.00 395840.47,5275250.60,0.00 395839.05,5275276.77,0.00" speed="13.89" />
	<edge id="319127949_31447351_1067704559" from="31447351" to="1067704559" numLanes="1" shape="395491.60,5275537.40,0.00 395500.42,5275570.67,0.00" speed="13.89" />
	<edge id="140143463_1535404429_1535405924" from="1535404429" to="1535405924" numLanes="2" shape="396888.70,5276153.97,0.00 396880.96,5276160.32,0.00 396858.78,5276164.43,0.00 396839.88,5276165.18,0.00 396828.09,5276163.14,0.00 396800.97,5276156.24,0.00 396792.24,5276158.22,0.00 396783.88,5276163.43,0.00 396778.54,5276169.86,0.00 396774.70,5276174.48,0.00 396766.59,5276185.50,0.00 396763.01,5276193.52,0.00" speed="8.33" />
	<edge id="772083372_3151377224_7207738415" from="3151377224" to="7207738415" numLanes="1" shape="395109.22,5275114.27,0.00 395133.50,5275130.27,0.00 395157.09,5275144.10,0.00 395173.27,5275153.27,0.00" speed="13.89" />
	<edge id="32888928_370426130_370685089" from="370426130" to="370685089" numLanes="1" shape="396561.70,5276307.08,0.00 396577.30,5276281.28,0.00 396587.91,5276271.66,0.00 396606.43,5276262.63,0.00 396608.22,5276260.49,0.00 396613.45,5276251.11,0.00 396615.34,5276247.55,0.00 396616.21,5276243.95,0.00 396616.82,5276240.23,0.00" speed="8.33" />
	<edge id="480524948_27357711_4735167035" from="27357711" to="4735167035" numLanes="1" shape="395812.29,5275548.98,0.00 395816.80,5275519.58,0.00" speed="18.06" />
	<edge id="276847417_1535406346_1535405924" from="1535406346" to="1535405924" numLanes="1" shape="396669.94,5276229.45,0.00 396686.10,5276223.54,0.00 396735.78,5276190.60,0.00 396745.98,5276189.85,0.00 396763.01,5276193.52,0.00" speed="8.33" />
	<edge id="5135402_353188017_353188010" from="353188017" to="353188010" numLanes="1" shape="396907.64,5275192.53,0.00 396889.69,5275182.62,0.00 396851.11,5275161.32,0.00" speed="8.33" />
	<edge id="38188052_449735035_449735089" from="449735035" to="449735089" numLanes="1" shape="396715.94,5275371.70,0.00 396774.23,5275370.72,0.00" speed="8.33" />
	<edge id="642023473_1627094366_26968394" from="1627094366" to="26968394" numLanes="2" shape="395247.41,5275690.60,0.00 395230.29,5275695.22,0.00" speed="19.44" />
	<edge id="37564441_484528701_484528664" from="484528701" to="484528664" numLanes="1" shape="396896.42,5275370.67,0.00 396861.10,5275346.25,0.00" speed="8.33" />
	<edge id="5135396_30914875_30914890" from="30914875" to="30914890" numLanes="1" shape="396483.64,5275449.33,0.00 396457.29,5275407.80,0.00" speed="8.33" />
	<edge id="642023474_1627094366_313824838" from="1627094366" to="313824838" numLanes="1" shape="395247.41,5275690.60,0.00 395309.76,5275675.10,0.00" speed="19.44" />
	<edge id="854209023_26969553_26969554" from="26969553" to="26969554" numLanes="1" shape="396129.83,5275894.44,0.00 396157.20,5275922.10,0.00" speed="18.06" />
	<edge id="32524392_10840350429_29093024" from="10840350429" to="29093024" numLanes="1" shape="396623.74,5276241.20,0.00 396644.17,5276243.87,0.00 396654.17,5276245.35,0.00 396663.82,5276246.79,0.00" speed="13.89" />
	<edge id="154492458_2696141959_60193755" from="2696141959" to="60193755" numLanes="1" shape="395696.38,5275197.30,0.00 395695.77,5275208.14,0.00 395695.49,5275213.10,0.00" speed="13.89" />
	<edge id="56982635_1531251445_27124728" from="1531251445" to="27124728" numLanes="1" shape="396149.12,5276348.88,0.00 396179.18,5276366.81,0.00 396198.75,5276382.12,0.00 396217.53,5276398.87,0.00 396231.40,5276411.25,0.00" speed="8.33" />
	<edge id="25099183_29763276_484528690" from="29763276" to="484528690" numLanes="1" shape="397006.92,5275335.13,0.00 396994.16,5275368.37,0.00 396983.46,5275386.56,0.00" speed="8.33" />
	<edge id="4851874_31276998_31277004" from="31276998" to="31277004" numLanes="1" shape="396403.70,5275952.36,0.00 396442.43,5275915.07,0.00" speed="8.33" />
	<edge id="4813593_29653589_29653590" from="29653589" to="29653590" numLanes="1" shape="396299.05,5276384.33,0.00 396336.91,5276359.24,0.00" speed="8.33" />
	<edge id="4851874_31276998_31277006" from="31276998" to="31277006" numLanes="1" shape="396403.70,5275952.36,0.00 396405.30,5275974.61,0.00 396408.48,5275988.66,0.00 396413.66,5276007.08,0.00 396417.78,5276021.83,0.00 396419.45,5276032.56,0.00 396420.41,5276042.61,0.00 396419.22,5276053.89,0.00 396416.78,5276068.06,0.00" speed="8.33" />
	<edge id="212289346_340999147_29763245" from="340999147" to="29763245" numLanes="1" shape="396454.20,5275270.62,0.00 396431.21,5275273.33,0.00 396378.20,5275279.57,0.00 396367.00,5275282.02,0.00" speed="13.89" />
	<edge id="30911294_343634785_340999855" from="343634785" to="340999855" numLanes="1" shape="396763.32,5275485.04,0.00 396693.23,5275434.82,0.00" speed="8.33" />
	<edge id="771759429_7204756100_7204756101" from="7204756100" to="7204756101" numLanes="1" shape="395456.73,5275436.97,0.00 395458.03,5275431.55,0.00 395458.17,5275424.35,0.00 395458.32,5275414.46,0.00" speed="13.89" />
	<edge id="263934942_29403259_248599487" from="29403259" to="248599487" numLanes="1" shape="395266.34,5274717.21,0.00 395218.27,5274813.68,0.00 395179.08,5274882.98,0.00 395168.00,5274903.06,0.00 395142.95,5274941.57,0.00 395130.36,5274959.64,0.00 395120.33,5274973.28,0.00 395110.25,5274984.81,0.00 395049.67,5275052.12,0.00 395047.84,5275053.80,0.00 395039.94,5275062.99,0.00" speed="8.33" />
	<edge id="319127927_3255369255_26968391" from="3255369255" to="26968391" numLanes="2" shape="395483.24,5275628.34,0.00 395512.20,5275619.93,0.00" speed="19.44" />
	<edge id="139722533_1531251443_1531251439" from="1531251443" to="1531251439" numLanes="1" shape="396129.30,5276348.43,0.00 396130.35,5276337.69,0.00" speed="8.33" />
	<edge id="256144798_6045187260_26968750" from="6045187260" to="26968750" numLanes="2" shape="394945.22,5275773.16,0.00 394907.38,5275783.28,0.00" speed="19.44" />
	<edge id="468705233_314742950_26969553" from="314742950" to="26969553" numLanes="1" shape="396066.07,5275831.73,0.00 396129.83,5275894.44,0.00" speed="19.44" />
	<edge id="151893069_1535404429_1647307501" from="1535404429" to="1647307501" numLanes="1" shape="396888.70,5276153.97,0.00 396848.44,5276137.73,0.00 396808.57,5276120.15,0.00" speed="8.33" />
	<edge id="319127949_1067704559_31447351" from="1067704559" to="31447351" numLanes="1" shape="395500.42,5275570.67,0.00 395491.60,5275537.40,0.00" speed="13.89" />
	<edge id="27634764_60193752_60193755" from="60193752" to="60193755" numLanes="2" shape="395723.21,5275213.60,0.00 395695.49,5275213.10,0.00" speed="13.89" />
	<edge id="242359993_1627094462_26969554" from="1627094462" to="26969554" numLanes="2" shape="396184.22,5275898.67,0.00 396167.72,5275912.05,0.00 396157.20,5275922.10,0.00" speed="19.44" />
	<edge id="479478568_29093024_4725688530" from="29093024" to="4725688530" numLanes="1" shape="396663.82,5276246.79,0.00 396663.23,5276252.55,0.00 396663.49,5276262.08,0.00 396663.33,5276269.27,0.00" speed="13.89" />
	<edge id="149759047_30914863_609079363" from="30914863" to="609079363" numLanes="1" shape="396895.94,5276127.04,0.00 396910.19,5276076.26,0.00" speed="8.33" />
	<edge id="37562757_30914874_340999855" from="30914874" to="340999855" numLanes="1" shape="396613.28,5275362.18,0.00 396619.58,5275375.15,0.00 396633.19,5275390.61,0.00 396663.89,5275413.21,0.00 396693.23,5275434.82,0.00" speed="8.33" />
	<edge id="32888931_370426130_370426168" from="370426130" to="370426168" numLanes="1" shape="396561.70,5276307.08,0.00 396589.29,5276321.63,0.00 396598.47,5276324.03,0.00 396609.20,5276323.39,0.00" speed="8.33" />
	<edge id="327060232_4735145765_1627094657" from="4735145765" to="1627094657" numLanes="1" shape="397225.18,5276244.47,0.00 397208.70,5276235.91,0.00 397190.90,5276229.76,0.00 397168.39,5276225.49,0.00 397143.00,5276225.93,0.00 397078.33,5276234.84,0.00" speed="13.89" />
	<edge id="151893070_1647307574_1647307427" from="1647307574" to="1647307427" numLanes="1" shape="396396.96,5276182.46,0.00 396379.56,5276176.12,0.00 396369.54,5276167.72,0.00 396330.93,5276131.82,0.00 396300.07,5276102.44,0.00" speed="8.33" />
	<edge id="4851871_31276997_31277003" from="31276997" to="31277003" numLanes="1" shape="396382.33,5275956.13,0.00 396377.16,5275948.74,0.00 396370.50,5275941.58,0.00 396361.13,5275933.76,0.00 396351.01,5275926.17,0.00 396338.27,5275919.46,0.00 396321.21,5275913.33,0.00" speed="8.33" />
	<edge id="4851872_31277007_31277006" from="31277007" to="31277006" numLanes="1" shape="396464.49,5276080.34,0.00 396416.78,5276068.06,0.00" speed="8.33" />
	<edge id="5135398_1624766181_484528701" from="1624766181" to="484528701" numLanes="1" shape="396880.59,5275388.06,0.00 396888.95,5275379.86,0.00 396896.42,5275370.67,0.00" speed="8.33" />
	<edge id="56982667_1654603939_29763233" from="1654603939" to="29763233" numLanes="1" shape="396618.24,5275253.49,0.00 396643.22,5275249.10,0.00 396697.19,5275226.48,0.00 396735.75,5275213.10,0.00 396753.06,5275209.27,0.00 396767.51,5275205.65,0.00" speed="13.89" />
	<edge id="149512796_340999940_1624766204" from="340999940" to="1624766204" numLanes="1" shape="396843.39,5275413.85,0.00 396850.39,5275425.37,0.00 396864.30,5275428.37,0.00" speed="8.33" />
	<edge id="319127954_1942384050_493343919" from="1942384050" to="493343919" numLanes="2" shape="395759.72,5275212.08,0.00 395795.34,5275215.13,0.00 395805.30,5275214.11,0.00 395809.26,5275211.35,0.00" speed="13.89" />
	<edge id="1292444654_31276992_29402376" from="31276992" to="29402376" numLanes="1" shape="396891.55,5276257.78,0.00 396905.21,5276256.32,0.00 396926.54,5276253.40,0.00" speed="13.89" />
	<edge id="24655790_27357711_26968380" from="27357711" to="26968380" numLanes="1" shape="395812.29,5275548.98,0.00 395813.05,5275557.43,0.00 395813.25,5275567.33,0.00 395813.90,5275573.39,0.00" speed="8.33" />
	<edge id="92087463_26968391_3255369249" from="26968391" to="3255369249" numLanes="1" shape="395512.20,5275619.93,0.00 395508.04,5275605.37,0.00 395505.92,5275596.66,0.00" speed="27.78" />
	<edge id="34407885_314742950_4944853980" from="314742950" to="4944853980" numLanes="1" shape="396066.07,5275831.73,0.00 396006.89,5275773.28,0.00 395929.99,5275698.26,0.00 395914.88,5275684.66,0.00 395881.44,5275654.55,0.00" speed="19.44" />
	<edge id="47896376_609079382_1648242908" from="609079382" to="1648242908" numLanes="1" shape="397002.99,5276181.85,0.00 397027.09,5276222.44,0.00" speed="8.33" />
	<edge id="5135396_29763245_449735048" from="29763245" to="449735048" numLanes="1" shape="396367.00,5275282.02,0.00 396374.43,5275297.26,0.00 396382.52,5275308.18,0.00 396385.43,5275313.70,0.00 396392.10,5275330.15,0.00 396414.65,5275349.60,0.00 396429.97,5275370.42,0.00" speed="8.33" />
	<edge id="5135395_1654605094_30914904" from="1654605094" to="30914904" numLanes="1" shape="396352.88,5275518.39,0.00 396343.18,5275503.37,0.00 396333.56,5275477.10,0.00 396331.40,5275471.21,0.00 396320.25,5275434.32,0.00 396312.70,5275409.36,0.00 396300.79,5275370.08,0.00 396293.88,5275345.11,0.00 396290.50,5275338.48,0.00" speed="8.33" />
	<edge id="30911337_343635135_343634785" from="343635135" to="343634785" numLanes="1" shape="396786.96,5275503.41,0.00 396763.32,5275485.04,0.00" speed="8.33" />
	<edge id="638322182_6016135995_60193752" from="6016135995" to="60193752" numLanes="2" shape="395738.74,5275217.56,0.00 395723.21,5275213.60,0.00" speed="13.89" />
	<edge id="319127949_31447351_1067737355" from="31447351" to="1067737355" numLanes="1" shape="395491.60,5275537.40,0.00 395488.02,5275524.71,0.00 395479.01,5275492.74,0.00 395478.10,5275489.50,0.00 395475.97,5275481.98,0.00" speed="13.89" />
	<edge id="23536185_254863695_254863685" from="254863695" to="254863685" numLanes="1" shape="396725.86,5276323.89,0.00 396720.06,5276335.19,0.00 396691.40,5276336.65,0.00 396682.47,5276335.46,0.00 396655.13,5276326.20,0.00" speed="8.33" />
	<edge id="39430702_29763233_484528706" from="29763233" to="484528706" numLanes="1" shape="396767.51,5275205.65,0.00 396809.81,5275244.91,0.00 396822.70,5275257.71,0.00" speed="13.89" />
	<edge id="151992697_609079394_1648242542" from="609079394" to="1648242542" numLanes="1" shape="397089.12,5276161.89,0.00 397105.78,5276153.92,0.00 397112.93,5276147.59,0.00 397127.58,5276127.92,0.00" speed="8.33" />
	<edge id="638250151_287146910_6015549894" from="287146910" to="6015549894" numLanes="3" shape="397216.85,5276064.23,0.00 397292.84,5276078.90,0.00 397357.93,5276088.71,0.00 397416.41,5276094.39,0.00" speed="33.33" />
	<edge id="210579057_4735167035_1069458630" from="4735167035" to="1069458630" numLanes="1" shape="395816.80,5275519.58,0.00 395821.83,5275490.41,0.00" speed="19.44" />
	<edge id="239223115_26968401_26968405" from="26968401" to="26968405" numLanes="1" shape="395055.70,5275656.86,0.00 395068.61,5275651.97,0.00 395082.80,5275647.64,0.00 395097.23,5275644.20,0.00 395113.04,5275641.43,0.00 395135.39,5275639.73,0.00 395150.79,5275639.70,0.00 395165.71,5275640.86,0.00 395181.18,5275643.60,0.00 395193.57,5275647.92,0.00 395201.40,5275652.58,0.00" speed="19.44" />
	<edge id="56982659_29763234_29763233" from="29763234" to="29763233" numLanes="1" shape="396769.09,5275200.29,0.00 396768.15,5275203.47,0.00 396767.51,5275205.65,0.00" speed="8.33" />
	<edge id="5135396_449735048_30914890" from="449735048" to="30914890" numLanes="1" shape="396429.97,5275370.42,0.00 396457.29,5275407.80,0.00" speed="8.33" />
	<edge id="32805226_369664904_369664908" from="369664904" to="369664908" numLanes="1" shape="396599.49,5276416.58,0.00 396608.10,5276407.02,0.00" speed="8.33" />
	<edge id="319127939_3255369246_27357733" from="3255369246" to="27357733" numLanes="2" shape="395786.05,5274934.65,0.00 395785.13,5274910.69,0.00 395785.16,5274890.37,0.00" speed="13.89" />
	<edge id="149758956_609079379_1627094657" from="609079379" to="1627094657" numLanes="1" shape="397037.31,5276240.59,0.00 397078.33,5276234.84,0.00" speed="13.89" />
	<edge id="1031510357_29763276_484528670" from="29763276" to="484528670" numLanes="1" shape="397006.92,5275335.13,0.00 396941.46,5275320.40,0.00 396924.38,5275314.51,0.00 396909.11,5275307.67,0.00 396882.97,5275293.81,0.00" speed="13.89" />
	<edge id="48556672_26968356_2498470913" from="26968356" to="2498470913" numLanes="3" shape="394826.96,5275630.21,0.00 394749.97,5275586.01,0.00 394617.63,5275503.16,0.00" speed="33.33" />
	<edge id="37564441_484528726_484528664" from="484528726" to="484528664" numLanes="1" shape="396789.53,5275311.30,0.00 396815.77,5275319.00,0.00 396842.52,5275333.83,0.00 396861.10,5275346.25,0.00" speed="8.33" />
	<edge id="467315046_1627094321_1627094326" from="1627094321" to="1627094326" numLanes="1" shape="395645.65,5275584.17,0.00 395622.05,5275589.03,0.00 395606.63,5275592.97,0.00" speed="19.44" />
	<edge id="92087463_3255369249_26968391" from="3255369249" to="26968391" numLanes="2" shape="395505.92,5275596.66,0.00 395508.04,5275605.37,0.00 395512.20,5275619.93,0.00" speed="27.78" />
	<edge id="991667348_1535403010_31276998" from="1535403010" to="31276998" numLanes="1" shape="396461.05,5275952.54,0.00 396431.69,5275951.28,0.00 396403.70,5275952.36,0.00" speed="8.33" />
	<edge id="772083373_7207738419_248599487" from="7207738419" to="248599487" numLanes="2" shape="395095.23,5275105.03,0.00 395039.94,5275062.99,0.00" speed="13.89" />
	<edge id="31564408_353188017_353188080" from="353188017" to="353188080" numLanes="1" shape="396907.64,5275192.53,0.00 396893.60,5275211.54,0.00 396885.03,5275222.57,0.00" speed="8.33" />
	<edge id="479483653_1647307574_4725748727" from="1647307574" to="4725748727" numLanes="1" shape="396396.96,5276182.46,0.00 396381.35,5276225.07,0.00" speed="8.33" />
	<edge id="319127925_26968391_3255369251" from="26968391" to="3255369251" numLanes="1" shape="395512.20,5275619.93,0.00 395541.61,5275611.53,0.00" speed="19.44" />
	<edge id="875548618_74152840_7428475358" from="74152840" to="7428475358" numLanes="1" shape="395219.13,5274941.30,0.00 395209.81,5274963.60,0.00 395202.73,5274979.37,0.00 395191.82,5274999.14,0.00" speed="8.33" />
	<edge id="32524392_10840350430_10840350429" from="10840350430" to="10840350429" numLanes="1" shape="396617.63,5276240.35,0.00 396620.56,5276240.79,0.00 396623.74,5276241.20,0.00" speed="13.89" />
	<edge id="212289346_30914904_29763245" from="30914904" to="29763245" numLanes="1" shape="396290.50,5275338.48,0.00 396329.98,5275308.49,0.00 396358.22,5275286.22,0.00 396367.00,5275282.02,0.00" speed="13.89" />
	<edge id="4813593_31276953_29653589" from="31276953" to="29653589" numLanes="1" shape="396245.01,5276416.11,0.00 396299.05,5276384.33,0.00" speed="8.33" />
	<edge id="940714735_6186318802_7207738415" from="6186318802" to="7207738415" numLanes="1" shape="395225.32,5275178.35,0.00 395194.27,5275166.20,0.00 395173.27,5275153.27,0.00" speed="13.89" />
	<edge id="5135396_449735048_29763245" from="449735048" to="29763245" numLanes="1" shape="396429.97,5275370.42,0.00 396414.65,5275349.60,0.00 396392.10,5275330.15,0.00 396385.43,5275313.70,0.00 396382.52,5275308.18,0.00 396374.43,5275297.26,0.00 396367.00,5275282.02,0.00" speed="8.33" />