<nodes>
	<node id="1066624051" x="396809.67" y="5275017.44" z="0.00" type="priority" />
	<node id="1067692664" x="395308.45" y="5275579.59" z="0.00" type="priority" />
	<node id="1067704559" x="395500.42" y="5275570.67" z="0.00" type="priority" />
	<node id="1067704574" x="395347.16" y="5275666.09" z="0.00" type="priority" />
	<node id="1067716447" x="395520.94" y="5275645.52" z="0.00" type="priority" />
	<node id="1067737355" x="395475.97" y="5275481.98" z="0.00" type="priority" />
	<node id="1067737463" x="395498.90" y="5275437.90" z="0.00" type="priority" />
	<node id="1067770030" x="395460.04" y="5274647.03" z="0.00" type="priority" />
	<node id="1069458630" x="395821.83" y="5275490.41" z="0.00" type="priority" />
	<node id="10840350429" x="396623.74" y="5276241.20" z="0.00" type="traffic_light" />
	<node id="10840350430" x="396617.63" y="5276240.35" z="0.00" type="traffic_light" />
	<node id="11409181637" x="396275.53" y="5276041.01" z="0.00" type="priority" />
	<node id="11409181643" x="396265.10" y="5276029.49" z="0.00" type="priority" />
	<node id="11409181645" x="396276.90" y="5276030.58" z="0.00" type="priority" />
	<node id="11804801925" x="396414.00" y="5275865.54" z="0.00" type="priority" />
	<node id="1328889731" x="396279.29" y="5276028.15" z="0.00" type="priority" />
	<node id="1531251439" x="396130.35" y="5276337.69" z="0.00" type="priority" />
	<node id="1531251443" x="396129.30" y="5276348.43" z="0.00" type="priority" />
	<node id="1531251445" x="396149.12" y="5276348.88" z="0.00" type="priority" />
	<node id="1531251472" x="396008.12" y="5276357.79" z="0.00" type="priority" />
	<node id="1531251505" x="396011.18" y="5276416.30" z="0.00" type="priority" />
	<node id="1531251544" x="396188.00" y="5276443.94" z="0.00" type="priority" />
	<node id="1531251605" x="396289.25" y="5276555.79" z="0.00" type="priority" />
	<node id="1535403010" x="396461.05" y="5275952.54" z="0.00" type="priority" />
	<node id="1535403475" x="396842.10" y="5276049.11" z="0.00" type="priority" />
	<node id="1535404429" x="396888.70" y="5276153.97" z="0.00" type="priority" />
	<node id="1535405924" x="396763.01" y="5276193.52" z="0.00" type="priority" />
	<node id="1535406346" x="396669.94" y="5276229.45" z="0.00" type="priority" />
	<node id="1624766181" x="396880.59" y="5275388.06" z="0.00" type="priority" />
	<node id="1624766197" x="396909.11" y="5275395.34" z="0.00" type="priority" />
	<node id="1624766204" x="396864.30" y="5275428.37" z="0.00" type="priority" />
	<node id="1627094301" x="396513.41" y="5275335.88" z="0.00" type="priority" />
	<node id="1627094306" x="396466.95" y="5275363.86" z="0.00" type="priority" />
	<node id="1627094309" x="396509.40" y="5275373.21" z="0.00" type="priority" />
	<node id="1627094310" x="396482.18" y="5275387.61" z="0.00" type="priority" />
	<node id="1627094321" x="395645.65" y="5275584.17" z="0.00" type="priority" />
	<node id="1627094325" x="395789.49" y="5275591.95" z="0.00" type="priority" />
	<node id="1627094326" x="395606.63" y="5275592.97" z="0.00" type="priority" />
	<node id="1627094366" x="395247.41" y="5275690.60" z="0.00" type="priority" />
	<node id="1627094462" x="396184.22" y="5275898.67" z="0.00" type="priority" />
	<node id="1627094532" x="396772.40" y="5276061.18" z="0.00" type="priority" />
	<node id="1627094657" x="397078.33" y="5276234.84" z="0.00" type="priority" />
	<node id="1646585433" x="396765.89" y="5276376.90" z="0.00" type="priority" />
	<node id="1647307427" x="396300.07" y="5276102.44" z="0.00" type="priority" />
	<node id="1647307501" x="396808.57" y="5276120.15" z="0.00" type="priority" />
	<node id="1647307574" x="396396.96" y="5276182.46" z="0.00" type="priority" />
	<node id="1648131899" x="396246.80" y="5275929.96" z="0.00" type="priority" />
	<node id="1648242542" x="397127.58" y="5276127.92" z="0.00" type="priority" />
	<node id="1648242826" x="397109.86" y="5276194.79" z="0.00" type="priority" />
	<node id="1648242885" x="396950.29" y="5276214.21" z="0.00" type="priority" />
	<node id="1648242908" x="397027.09" y="5276222.44" z="0.00" type="priority" />
	<node id="1654603664" x="396758.94" y="5275179.23" z="0.00" type="priority" />
	<node id="1654603939" x="396618.24" y="5275253.49" z="0.00" type="priority" />
	<node id="1654604595" x="396456.47" y="5275357.57" z="0.00" type="priority" />
	<node id="1654604881" x="396615.56" y="5275411.43" z="0.00" type="priority" />
	<node id="1654605094" x="396352.88" y="5275518.39" z="0.00" type="priority" />
	<node id="175988863" x="395590.90" y="5275113.47" z="0.00" type="priority" />
	<node id="1942384050" x="395759.72" y="5275212.08" z="0.00" type="priority" />
	<node id="1942384055" x="395787.08" y="5275224.36" z="0.00" type="priority" />
	<node id="1942384058" x="395836.41" y="5275270.04" z="0.00" type="priority" />
	<node id="1942396072" x="395703.23" y="5275418.03" z="0.00" type="priority" />
	<node id="2206576617" x="395841.85" y="5275331.95" z="0.00" type="priority" />
	<node id="2206576618" x="395840.14" y="5275362.89" z="0.00" type="priority" />
	<node id="2470314124" x="394707.56" y="5275545.31" z="0.00" type="priority" />
	<node id="248599487" x="395039.94" y="5275062.99" z="0.00" type="priority" />
	<node id="2498470913" x="394617.63" y="5275503.16" z="0.00" type="priority" />
	<node id="2498470920" x="394930.79" y="5275695.04" z="0.00" type="priority" />
	<node id="254863685" x="396655.13" y="5276326.20" z="0.00" type="priority" />
	<node id="254863695" x="396725.86" y="5276323.89" z="0.00" type="priority" />
	<node id="2618375370" x="395425.05" y="5275644.79" z="0.00" type="priority" />
	<node id="2619185875" x="394807.69" y="5275809.69" z="0.00" type="priority" />
	<node id="2634549481" x="395012.27" y="5275036.01" z="0.00" type="priority" />
	<node id="267989899" x="396220.88" y="5275986.79" z="0.00" type="priority" />
	<node id="2685375050" x="396535.23" y="5275333.98" z="0.00" type="priority" />
	<node id="2696141959" x="395696.38" y="5275197.30" z="0.00" type="priority" />
	<node id="2696166079" x="395545.91" y="5275213.61" z="0.00" type="priority" />
	<node id="26968356" x="394826.96" y="5275630.21" z="0.00" type="priority" />
	<node id="26968360" x="394894.99" y="5275761.30" z="0.00" type="priority" />
	<node id="26968377" x="395808.54" y="5275600.58" z="0.00" type="priority" />
	<node id="26968379" x="395819.48" y="5275588.03" z="0.00" type="priority" />
	<node id="26968380" x="395813.90" y="5275573.39" z="0.00" type="priority" />
	<node id="26968382" x="395800.42" y="5275570.21" z="0.00" type="priority" />
	<node id="26968383" x="395791.81" y="5275575.46" z="0.00" type="priority" />
	<node id="26968386" x="395763.92" y="5275579.73" z="0.00" type="priority" />
	<node id="26968391" x="395512.20" y="5275619.93" z="0.00" type="traffic_light" />
	<node id="26968394" x="395230.29" y="5275695.22" z="0.00" type="priority" />
	<node id="26968399" x="395061.15" y="5275714.61" z="0.00" type="priority" />
	<node id="26968401" x="395055.70" y="5275656.86" z="0.00" type="priority" />
	<node id="26968405" x="395201.40" y="5275652.58" z="0.00" type="priority" />
	<node id="26968409" x="394940.82" y="5275671.48" z="0.00" type="priority" />
	<node id="26968750" x="394907.38" y="5275783.28" z="0.00" type="priority" />
	<node id="26969548" x="395987.61" y="5275808.32" z="0.00" type="priority" />
	<node id="26969550" x="395832.21" y="5275610.11" z="0.00" type="priority" />
	<node id="26969553" x="396129.83" y="5275894.44" z="0.00" type="priority" />
	<node id="26969554" x="396157.20" y="5275922.10" z="0.00" type="priority" />
	<node id="26969561" x="396972.64" y="5275997.50" z="0.00" type="priority" />
	<node id="270306833" x="395104.61" y="5275477.56" z="0.00" type="priority" />
	<node id="270306839" x="395284.24" y="5275497.26" z="0.00" type="priority" />
	<node id="27124723" x="396126.12" y="5276181.55" z="0.00" type="priority" />
	<node id="27124725" x="396049.83" y="5276283.86" z="0.00" type="priority" />
	<node id="27124728" x="396231.40" y="5276411.25" z="0.00" type="priority" />
	<node id="27204812" x="395846.30" y="5276410.73" z="0.00" type="priority" />
	<node id="27282123" x="395244.91" y="5274861.26" z="0.00" type="priority" />
	<node id="27348046" x="394905.36" y="5275757.67" z="0.00" type="priority" />
	<node id="27357518" x="396549.51" y="5276326.15" z="0.00" type="priority" />
	<node id="27357711" x="395812.29" y="5275548.98" z="0.00" type="priority" />
	<node id="27357714" x="395833.42" y="5275414.69" z="0.00" type="priority" />
	<node id="27357721" x="395839.05" y="5275276.77" z="0.00" type="priority" />
	<node id="27357726" x="395823.12" y="5275175.89" z="0.00" type="priority" />
	<node id="27357733" x="395785.16" y="5274890.37" z="0.00" type="priority" />
	<node id="2813572908" x="397040.73" y="5275221.26" z="0.00" type="priority" />
	<node id="287146910" x="397216.85" y="5276064.23" z="0.00" type="priority" />
	<node id="29092984" x="398266.27" y="5276560.01" z="0.00" type="priority" />
	<node id="29093024" x="396663.82" y="5276246.79" z="0.00" type="priority" />
	<node id="29402376" x="396926.54" y="5276253.40" z="0.00" type="priority" />
	<node id="29403259" x="395266.34" y="5274717.21" z="0.00" type="priority" />
	<node id="29653589" x="396299.05" y="5276384.33" z="0.00" type="priority" />
	<node id="29653590" x="396336.91" y="5276359.24" z="0.00" type="priority" />
	<node id="29653595" x="396492.31" y="5276434.44" z="0.00" type="priority" />
	<node id="29763233" x="396767.51" y="5275205.65" z="0.00" type="priority" />
	<node id="29763234" x="396769.09" y="5275200.29" z="0.00" type="priority" />
	<node id="29763235" x="396820.26" y="5275173.25" z="0.00" type="priority" />
	<node id="29763241" x="396756.05" y="5275010.21" z="0.00" type="priority" />
	<node id="29763245" x="396367.00" y="5275282.02" z="0.00" type="priority" />
	<node id="29763247" x="396209.16" y="5275407.84" z="0.00" type="priority" />
	<node id="29763248" x="396146.84" y="5275459.39" z="0.00" type="priority" />
	<node id="29763256" x="395873.46" y="5275220.10" z="0.00" type="priority" />
	<node id="29763257" x="395871.95" y="5275219.11" z="0.00" type="priority" />
	<node id="29763258" x="396196.14" y="5275823.69" z="0.00" type="priority" />
	<node id="29763275" x="397075.22" y="5275373.16" z="0.00" type="priority" />
	<node id="29763276" x="397006.92" y="5275335.13" z="0.00" type="priority" />
	<node id="300473057" x="396826.59" y="5276266.04" z="0.00" type="priority" />
	<node id="300473061" x="396362.38" y="5276329.72" z="0.00" type="priority" />
	<node id="300473063" x="396377.38" y="5276236.57" z="0.00" type="priority" />
	<node id="300473065" x="396406.11" y="5276166.68" z="0.00" type="priority" />
	<node id="30914863" x="396895.94" y="5276127.04" z="0.00" type="priority" />
	<node id="30914865" x="396941.04" y="5276013.35" z="0.00" type="priority" />
	<node id="30914869" x="396957.33" y="5275413.57" z="0.00" type="priority" />
	<node id="30914872" x="396715.64" y="5275417.94" z="0.00" type="priority" />
	<node id="30914873" x="396715.35" y="5275312.42" z="0.00" type="priority" />
	<node id="30914874" x="396613.28" y="5275362.18" z="0.00" type="priority" />
	<node id="30914875" x="396483.64" y="5275449.33" z="0.00" type="priority" />
	<node id="30914890" x="396457.29" y="5275407.80" z="0.00" type="priority" />
	<node id="30914901" x="396930.85" y="5275200.98" z="0.00" type="priority" />
	<node id="30914904" x="396290.50" y="5275338.48" z="0.00" type="priority" />
	<node id="30914905" x="396576.64" y="5275259.30" z="0.00" type="priority" />
	<node id="31241118" x="395531.05" y="5275687.19" z="0.00" type="priority" />
	<node id="31241122" x="395761.43" y="5275714.75" z="0.00" type="priority" />
	<node id="31276952" x="396317.35" y="5276545.36" z="0.00" type="priority" />
	<node id="31276953" x="396245.01" y="5276416.11" z="0.00" type="priority" />
	<node id="31276959" x="396085.93" y="5276538.24" z="0.00" type="priority" />
	<node id="31276979" x="396594.87" y="5276423.15" z="0.00" type="priority" />
	<node id="31276992" x="396891.55" y="5276257.78" z="0.00" type="priority" />
	<node id="31276996" x="396303.64" y="5276001.81" z="0.00" type="priority" />
	<node id="31276997" x="396382.33" y="5275956.13" z="0.00" type="priority" />
	<node id="31276998" x="396403.70" y="5275952.36" z="0.00" type="priority" />
	<node id="31276999" x="396383.14" y="5276146.98" z="0.00" type="priority" />
	<node id="31277001" x="396378.83" y="5276038.53" z="0.00" type="priority" />
	<node id="31277003" x="396321.21" y="5275913.33" z="0.00" type="priority" />
	<node id="31277004" x="396442.43" y="5275915.07" z="0.00" type="priority" />
	<node id="31277006" x="396416.78" y="5276068.06" z="0.00" type="priority" />
	<node id="31277007" x="396464.49" y="5276080.34" z="0.00" type="priority" />
	<node id="313822470" x="395211.71" y="5275754.44" z="0.00" type="priority" />
	<node id="313822472" x="395203.34" y="5275741.51" z="0.00" type="priority" />
	<node id="313822475" x="395038.49" y="5275719.89" z="0.00" type="priority" />
	<node id="313822476" x="395209.58" y="5275671.63" z="0.00" type="priority" />
	<node id="313822481" x="394876.53" y="5275791.45" z="0.00" type="priority" />
	<node id="313824838" x="395309.76" y="5275675.10" z="0.00" type="priority" />
	<node id="313824851" x="395185.85" y="5275707.59" z="0.00" type="priority" />
	<node id="313826373" x="396076.44" y="5275813.44" z="0.00" type="priority" />
	<node id="313826376" x="396089.88" y="5275826.24" z="0.00" type="priority" />
	<node id="31447344" x="395463.15" y="5275460.84" z="0.00" type="priority" />
	<node id="31447346" x="395469.66" y="5275432.99" z="0.00" type="priority" />
	<node id="31447349" x="395537.91" y="5275427.09" z="0.00" type="priority" />
	<node id="31447351" x="395491.60" y="5275537.40" z="0.00" type="priority" />
	<node id="31447352" x="395635.79" y="5275499.51" z="0.00" type="priority" />
	<node id="31447353" x="395583.81" y="5275415.56" z="0.00" type="priority" />
	<node id="314742950" x="396066.07" y="5275831.73" z="0.00" type="priority" />
	<node id="3151377224" x="395109.22" y="5275114.27" z="0.00" type="priority" />
	<node id="3151384182" x="394525.82" y="5274192.16" z="0.00" type="priority" />
	<node id="3255369246" x="395786.05" y="5274934.65" z="0.00" type="priority" />
	<node id="3255369248" x="395751.05" y="5275219.15" z="0.00" type="priority" />
	<node id="3255369249" x="395505.92" y="5275596.66" z="0.00" type="priority" />
	<node id="3255369251" x="395541.61" y="5275611.53" z="0.00" type="priority" />
	<node id="3255369255" x="395483.24" y="5275628.34" z="0.00" type="priority" />
	<node id="332373956" x="396708.32" y="5275105.24" z="0.00" type="priority" />
	<node id="340999147" x="396454.20" y="5275270.62" z="0.00" type="priority" />
	<node id="340999855" x="396693.23" y="5275434.82" z="0.00" type="priority" />
	<node id="340999940" x="396843.39" y="5275413.85" z="0.00" type="priority" />
	<node id="341000053" x="396808.52" y="5275390.15" z="0.00" type="priority" />
	<node id="343633816" x="396273.88" y="5275351.40" z="0.00" type="priority" />
	<node id="343634785" x="396763.32" y="5275485.04" z="0.00" type="priority" />
	<node id="343634786" x="396827.25" y="5275479.54" z="0.00" type="priority" />
	<node id="343635135" x="396786.96" y="5275503.41" z="0.00" type="priority" />
	<node id="353188010" x="396851.11" y="5275161.32" z="0.00" type="priority" />
	<node id="353188017" x="396907.64" y="5275192.53" z="0.00" type="priority" />
	<node id="353188080" x="396885.03" y="5275222.57" z="0.00" type="priority" />
	<node id="353188518" x="397050.09" y="5275300.65" z="0.00" type="priority" />
	<node id="353188534" x="396986.15" y="5275199.36" z="0.00" type="priority" />
	<node id="353188545" x="397042.48" y="5275243.20" z="0.00" type="priority" />
	<node id="355169211" x="396887.88" y="5275112.19" z="0.00" type="priority" />
	<node id="369664904" x="396599.49" y="5276416.58" z="0.00" type="priority" />
	<node id="369664908" x="396608.10" y="5276407.02" z="0.00" type="priority" />
	<node id="369664918" x="396355.29" y="5276344.03" z="0.00" type="priority" />
	<node id="370426130" x="396561.70" y="5276307.08" z="0.00" type="priority" />
	<node id="370426168" x="396609.20" y="5276323.39" z="0.00" type="priority" />
	<node id="370685073" x="396526.61" y="5276213.10" z="0.00" type="priority" />
	<node id="370685074" x="396482.74" y="5276333.57" z="0.00" type="priority" />
	<node id="370685089" x="396616.82" y="5276240.23" z="0.00" type="priority" />
	<node id="449735032" x="396716.00" y="5275401.42" z="0.00" type="priority" />
	<node id="449735035" x="396715.94" y="5275371.70" z="0.00" type="priority" />
	<node id="449735037" x="396715.84" y="5275342.82" z="0.00" type="priority" />
	<node id="449735048" x="396429.97" y="5275370.42" z="0.00" type="priority" />
	<node id="449735057" x="396367.39" y="5275404.98" z="0.00" type="priority" />
	<node id="449735078" x="396773.56" y="5275399.90" z="0.00" type="priority" />
	<node id="449735087" x="396775.25" y="5275342.47" z="0.00" type="priority" />
	<node id="449735089" x="396774.23" y="5275370.72" z="0.00" type="priority" />
	<node id="4631821372" x="396196.11" y="5275960.58" z="0.00" type="priority" />
	<node id="467735789" x="395472.30" y="5275433.82" z="0.00" type="priority" />
	<node id="467735792" x="395455.81" y="5275456.12" z="0.00" type="priority" />
	<node id="467735795" x="395476.67" y="5275457.66" z="0.00" type="priority" />
	<node id="4725688530" x="396663.33" y="5276269.27" z="0.00" type="priority" />
	<node id="4725748727" x="396381.35" y="5276225.07" z="0.00" type="priority" />
	<node id="4734809614" x="397014.63" y="5276325.88" z="0.00" type="priority" />
	<node id="4735128550" x="397744.67" y="5277042.96" z="0.00" type="priority" />
	<node id="4735145765" x="397225.18" y="5276244.47" z="0.00" type="priority" />
	<node id="4735167035" x="395816.80" y="5275519.58" z="0.00" type="priority" />
	<node id="484528664" x="396861.10" y="5275346.25" z="0.00" type="priority" />
	<node id="484528666" x="396869.76" y="5275325.43" z="0.00" type="priority" />
	<node id="484528670" x="396882.97" y="5275293.81" z="0.00" type="priority" />
	<node id="484528680" x="396866.51" y="5275333.33" z="0.00" type="priority" />
	<node id="484528690" x="396983.46" y="5275386.56" z="0.00" type="priority" />
	<node id="484528701" x="396896.42" y="5275370.67" z="0.00" type="priority" />
	<node id="484528706" x="396822.70" y="5275257.71" z="0.00" type="priority" />
	<node id="484528726" x="396789.53" y="5275311.30" z="0.00" type="priority" />
	<node id="484528731" x="396976.27" y="5275381.98" z="0.00" type="priority" />
	<node id="484528752" x="396585.72" y="5275381.60" z="0.00" type="priority" />
	<node id="493343901" x="395480.63" y="5275451.43" z="0.00" type="priority" />
	<node id="493343902" x="395477.56" y="5275437.60" z="0.00" type="priority" />
	<node id="493343903" x="395453.22" y="5275442.96" z="0.00" type="priority" />
	<node id="493343919" x="395809.26" y="5275211.35" z="0.00" type="priority" />
	<node id="4944853980" x="395881.44" y="5275654.55" z="0.00" type="priority" />
	<node id="5301860921" x="395696.02" y="5275302.42" z="0.00" type="priority" />
	<node id="5301860923" x="395597.91" y="5275297.94" z="0.00" type="priority" />
	<node id="568797202" x="396181.44" y="5275338.08" z="0.00" type="priority" />
	<node id="5847463989" x="395217.75" y="5275663.98" z="0.00" type="priority" />
	<node id="6015549780" x="395325.54" y="5275755.95" z="0.00" type="priority" />
	<node id="6015549887" x="396463.53" y="5275862.32" z="0.00" type="priority" />
	<node id="6015549890" x="396701.23" y="5275931.09" z="0.00" type="priority" />
	<node id="6015549893" x="396867.47" y="5275965.42" z="0.00" type="priority" />
	<node id="6015549894" x="397416.41" y="5276094.39" z="0.00" type="priority" />
	<node id="6015860803" x="395816.85" y="5275137.23" z="0.00" type="priority" />
	<node id="6016135995" x="395738.74" y="5275217.56" z="0.00" type="priority" />
	<node id="60193752" x="395723.21" y="5275213.60" z="0.00" type="priority" />
	<node id="60193755" x="395695.49" y="5275213.10" z="0.00" type="priority" />
	<node id="60193759" x="395592.00" y="5275213.48" z="0.00" type="priority" />
	<node id="60193764" x="395410.80" y="5275214.66" z="0.00" type="priority" />
	<node id="60193769" x="395820.50" y="5275239.81" z="0.00" type="priority" />
	<node id="60193771" x="395810.16" y="5275231.32" z="0.00" type="priority" />
	<node id="60193777" x="395818.70" y="5275202.12" z="0.00" type="priority" />
	<node id="60193781" x="395835.19" y="5275200.81" z="0.00" type="priority" />
	<node id="60193782" x="395844.08" y="5275207.92" z="0.00" type="priority" />
	<node id="60193786" x="395847.56" y="5275225.85" z="0.00" type="priority" />
	<node id="60193788" x="395841.63" y="5275236.08" z="0.00" type="priority" />
	<node id="60219319" x="395316.11" y="5274952.05" z="0.00" type="priority" />
	<node id="6045187260" x="394945.22" y="5275773.16" z="0.00" type="priority" />
	<node id="6045187265" x="395025.33" y="5275751.68" z="0.00" type="priority" />
	<node id="6045187266" x="395056.76" y="5275743.26" z="0.00" type="priority" />
	<node id="609079363" x="396910.19" y="5276076.26" z="0.00" type="priority" />
	<node id="609079379" x="397037.31" y="5276240.59" z="0.00" type="priority" />
	<node id="609079382" x="397002.99" y="5276181.85" z="0.00" type="priority" />
	<node id="609079394" x="397089.12" y="5276161.89" z="0.00" type="priority" />
	<node id="609079395" x="397089.47" y="5276172.99" z="0.00" type="priority" />
	<node id="6186318802" x="395225.32" y="5275178.35" z="0.00" type="priority" />
	<node id="6687013226" x="396352.47" y="5276116.65" z="0.00" type="traffic_light" />
	<node id="6687013228" x="396357.11" y="5276121.24" z="0.00" type="traffic_light" />
	<node id="6687013229" x="396284.14" y="5276049.42" z="0.00" type="priority" />
	<node id="7204756097" x="395431.98" y="5275455.83" z="0.00" type="priority" />
	<node id="7204756100" x="395456.73" y="5275436.97" z="0.00" type="priority" />
	<node id="7204756101" x="395458.32" y="5275414.46" z="0.00" type="priority" />
	<node id="7204756117" x="395324.23" y="5275207.00" z="0.00" type="priority" />
	<node id="7204756120" x="395642.13" y="5275213.29" z="0.00" type="priority" />
	<node id="7205657667" x="395384.71" y="5275213.44" z="0.00" type="priority" />
	<node id="7207738415" x="395173.27" y="5275153.27" z="0.00" type="priority" />
	<node id="7207738419" x="395095.23" y="5275105.03" z="0.00" type="priority" />
	<node id="7221289278" x="398182.26" y="5275978.85" z="0.00" type="priority" />
	<node id="74152840" x="395219.13" y="5274941.30" z="0.00" type="priority" />
	<node id="7428475358" x="395191.82" y="5274999.14" z="0.00" type="priority" />
	<node id="7800348624" x="395310.00" y="5275580.59" z="0.00" type="priority" />
	<node id="8442451572" x="395699.21" y="5274890.90" z="0.00" type="priority" />
	<node id="9323935" x="398116.55" y="5276205.71" z="0.00" type="priority" />
	<node id="9323941" x="396519.52" y="5275886.18" z="0.00" type="priority" />
	<node id="9323942" x="396002.12" y="5275821.18" z="0.00" type="priority" />
	<node id="9323945" x="394960.75" y="5275693.15" z="0.00" type="priority" />
	<node id="9514367313" x="396701.32" y="5275056.03" z="0.00" type="priority" />
</nodes>
