<connections>
	<connection from="39117517_31447349_1067737463" to="92087490_1067737463_493343901" />
	<connection from="39117517_31447349_1067737463" to="39117517_1067737463_31447349" />
	<connection from="37564441_30914873_30914874" to="37564440_30914874_484528752" />
	<connection from="37564441_30914873_30914874" to="37564441_30914874_30914873" />
	<connection from="37564441_30914873_30914874" to="39430701_30914874_30914905" />
	<connection from="37564441_30914873_30914874" to="37562757_30914874_340999855" />
	<connection from="47896381_609079394_609079363" to="547923968_609079363_1535403475" />
	<connection from="47896381_609079394_609079363" to="149759047_609079363_30914865" />
	<connection from="47896381_609079394_609079363" to="149759047_609079363_30914863" />
	<connection from="47896381_609079394_609079363" to="47896381_609079363_609079394" />
	<connection from="319127924_3255369251_1067716447" to="4847834_1067716447_26968391" />
	<connection from="319127924_3255369251_1067716447" to="4847834_1067716447_31241118" />
	<connection from="468705233_26969553_314742950" to="468705233_314742950_26969553" />
	<connection from="468705233_26969553_314742950" to="34407885_314742950_4944853980" />
	<connection from="638250143_6015549887_6015549893" to="638250150_6015549893_26969561" />
	<connection from="4662766_27124723_29653589" to="4813593_29653589_31276953" />
	<connection from="4662766_27124723_29653589" to="4813593_29653589_29653590" />
	<connection from="4662766_27124723_29653589" to="4662766_29653589_27124723" />
	<connection from="25099183_484528690_29763276" to="1031510357_29763276_484528670" />
	<connection from="25099183_484528690_29763276" to="25099012_29763276_29763275" />
	<connection from="25099183_484528690_29763276" to="25099183_29763276_484528690" />
	<connection from="480525644_27357714_2206576618" to="480525644_2206576618_27357714" />
	<connection from="480525644_27357714_2206576618" to="319127930_2206576618_2206576617" />
	<connection from="638250153_26969561_287146910" to="638250151_287146910_6015549894" />
	<connection from="32524392_29093024_10840350429" to="32524392_10840350429_10840350430" />
	<connection from="32524392_29093024_10840350429" to="32524392_10840350429_29093024" />
	<connection from="37562757_340999855_30914874" to="37564440_30914874_484528752" />
	<connection from="37562757_340999855_30914874" to="37564441_30914874_30914873" />
	<connection from="37562757_340999855_30914874" to="39430701_30914874_30914905" />
	<connection from="37562757_340999855_30914874" to="37562757_30914874_340999855" />
	<connection from="40202022_484528726_484528706" to="39430702_484528706_29763233" />
	<connection from="40202022_484528726_484528706" to="39430702_484528706_484528670" />
	<connection from="40202022_484528726_484528706" to="40202022_484528706_484528726" />
	<connection from="30911294_343634785_343634786" to="30911294_343634786_343634785" />
	<connection from="4870965_31447353_31447349" to="39117517_31447349_1067737463" />
	<connection from="4870965_31447353_31447349" to="4870965_31447349_31447353" />
	<connection from="149758948_26968386_1627094321" to="467315046_1627094321_1627094326" />
	<connection from="149758948_26968386_1627094321" to="149758948_1627094321_26968386" />
	<connection from="56982684_6687013226_6687013229" to="56982684_6687013229_6687013226" />
	<connection from="56982684_6687013226_6687013229" to="711226346_6687013229_11409181637" />
	<connection from="37562758_449735037_30914873" to="37564441_30914873_30914874" />
	<connection from="37562758_449735037_30914873" to="37564441_30914873_484528726" />
	<connection from="37562758_449735037_30914873" to="37562758_30914873_449735037" />
	<connection from="32805229_369664918_300473061" to="32805228_300473061_300473063" />
	<connection from="32805229_369664918_300473061" to="32805229_300473061_369664918" />
	<connection from="56982684_6687013226_6687013228" to="56982684_6687013228_31276999" />
	<connection from="56982684_6687013226_6687013228" to="56982684_6687013228_6687013226" />
	<connection from="37562758_449735032_449735035" to="37562758_449735035_449735037" />
	<connection from="37562758_449735032_449735035" to="37562758_449735035_449735032" />
	<connection from="37562758_449735032_449735035" to="38188052_449735035_449735089" />
	<connection from="218184015_1535405924_31276992" to="1292444654_31276992_300473057" />
	<connection from="218184015_1535405924_31276992" to="218184015_31276992_1535405924" />
	<connection from="218184015_1535405924_31276992" to="1292444654_31276992_29402376" />
	<connection from="5135402_353188534_2813572908" to="5135402_2813572908_353188534" />
	<connection from="16973243_60193782_29763257" to="285827136_29763257_29763256" />
	<connection from="30797960_340999940_341000053" to="30797960_341000053_340999940" />
	<connection from="642023479_26968394_313824851" to="48557571_313824851_6045187266" />
	<connection from="28568791_26968399_313822472" to="28568792_313822472_6015549780" />
	<connection from="37562758_449735032_30914872" to="5135398_30914872_340999940" />
	<connection from="37562758_449735032_30914872" to="37562758_30914872_449735032" />
	<connection from="37562758_449735032_30914872" to="5135398_30914872_340999855" />
	<connection from="177038840_31276959_27204812" to="177038840_27204812_31276959" />
	<connection from="991667348_1328889731_31276996" to="4851870_31276996_31277001" />
	<connection from="991667348_1328889731_31276996" to="991667348_31276996_31276997" />
	<connection from="991667348_1328889731_31276996" to="991667348_31276996_1328889731" />
	<connection from="991667348_1328889731_31276996" to="4851869_31276996_1648131899" />
	<connection from="149758976_26968379_26969550" to="504314832_26969550_4944853980" />
	<connection from="32524392_10840350429_10840350430" to="32524392_10840350430_10840350429" />
	<connection from="32524392_10840350429_10840350430" to="32524392_10840350430_370685089" />
	<connection from="785833015_484528701_30914869" to="785833015_30914869_484528701" />
	<connection from="785833015_484528701_30914869" to="1031510376_30914869_484528690" />
	<connection from="5135398_340999940_1624766181" to="149512795_1624766181_1624766197" />
	<connection from="5135398_340999940_1624766181" to="5135398_1624766181_484528701" />
	<connection from="5135398_340999940_1624766181" to="5135398_1624766181_340999940" />
	<connection from="1292444655_1328889731_11409181645" to="1292444655_11409181645_1328889731" />
	<connection from="1292444655_1328889731_11409181645" to="1230272497_11409181645_11409181637" />
	<connection from="151992693_1648242826_609079395" to="151992693_609079395_1648242826" />
	<connection from="151992693_1648242826_609079395" to="47896381_609079395_609079394" />
	<connection from="151992693_1648242826_609079395" to="47896381_609079395_609079382" />
	<connection from="327060232_1627094657_4735145765" to="327060232_4735145765_1627094657" />
	<connection from="327060232_1627094657_4735145765" to="480522568_4735145765_29092984" />
	<connection from="149759047_609079363_30914865" to="149759047_30914865_609079363" />
	<connection from="48557571_6045187266_313824851" to="28568926_313824851_313822476" />
	<connection from="48557571_6045187266_313824851" to="642023479_313824851_26968394" />
	<connection from="48557571_6045187266_313824851" to="48557571_313824851_6045187266" />
	<connection from="5135402_2813572908_353188534" to="31564463_353188534_353188545" />
	<connection from="5135402_2813572908_353188534" to="5135402_353188534_30914901" />
	<connection from="5135402_2813572908_353188534" to="5135402_353188534_2813572908" />
	<connection from="32915674_370685074_370685073" to="32524392_370685073_300473065" />
	<connection from="32915674_370685074_370685073" to="32524392_370685073_370685089" />
	<connection from="32915674_370685074_370685073" to="32915674_370685073_370685074" />
	<connection from="40202040_29763241_1654603664" to="40202040_1654603664_29763241" />
	<connection from="40202040_29763241_1654603664" to="39430696_1654603664_332373956" />
	<connection from="40202040_29763241_1654603664" to="278571654_1654603664_29763234" />
	<connection from="149759047_609079363_30914863" to="991667281_30914863_1627094532" />
	<connection from="149759047_609079363_30914863" to="140143463_30914863_1535404429" />
	<connection from="149759047_609079363_30914863" to="149759047_30914863_609079363" />
	<connection from="149759047_609079363_30914863" to="47896376_30914863_609079382" />
	<connection from="4662766_29653589_27124723" to="4662766_27124723_29653589" />
	<connection from="642023473_26968394_1627094366" to="642023473_1627094366_26968394" />
	<connection from="642023473_26968394_1627094366" to="642023474_1627094366_313824838" />
	<connection from="4851874_31277004_31276998" to="4851874_31276998_31277004" />
	<connection from="4851874_31277004_31276998" to="4851874_31276998_31277006" />
	<connection from="4851874_31277004_31276998" to="991667348_31276998_1535403010" />
	<connection from="4851874_31277004_31276998" to="991667348_31276998_31276997" />
	<connection from="4847835_31241122_31241118" to="4847834_31241118_1067716447" />
	<connection from="4847835_31241122_31241118" to="4847835_31241118_31241122" />
	<connection from="319127949_1067737355_31447351" to="319127949_31447351_1067704559" />
	<connection from="319127949_1067737355_31447351" to="472932175_31447351_7800348624" />
	<connection from="319127949_1067737355_31447351" to="319127949_31447351_1067737355" />
	<connection from="319127949_1067737355_31447351" to="39436945_31447351_31447352" />
	<connection from="991667348_31276998_1535403010" to="149758950_1535403010_1627094532" />
	<connection from="991667348_31276998_1535403010" to="991667348_1535403010_31276998" />
	<connection from="37564440_30914875_484528752" to="40202031_484528752_2685375050" />
	<connection from="37564440_30914875_484528752" to="37564440_484528752_30914875" />
	<connection from="37564440_30914875_484528752" to="37564440_484528752_30914874" />
	<connection from="263933585_493343919_60193777" to="8050262_60193777_60193781" />
	<connection from="263933585_493343919_60193777" to="16973244_60193777_27357726" />
	<connection from="278571654_29763234_1654603664" to="40202040_1654603664_29763241" />
	<connection from="278571654_29763234_1654603664" to="39430696_1654603664_332373956" />
	<connection from="278571654_29763234_1654603664" to="278571654_1654603664_29763234" />
	<connection from="309792448_7428475358_3151377224" to="309792448_3151377224_7428475358" />
	<connection from="309792448_7428475358_3151377224" to="772083372_3151377224_7207738415" />
	<connection from="309792448_7428475358_3151377224" to="152179045_3151377224_7207738419" />
	<connection from="40202031_484528752_2685375050" to="40202031_2685375050_484528752" />
	<connection from="5135402_353188017_30914901" to="5135402_30914901_353188017" />
	<connection from="5135402_353188017_30914901" to="5135402_30914901_353188534" />
	<connection from="5135402_353188017_30914901" to="31564432_30914901_353188518" />
	<connection from="1031510357_484528670_29763276" to="1031510357_29763276_484528670" />
	<connection from="1031510357_484528670_29763276" to="25099012_29763276_29763275" />
	<connection from="1031510357_484528670_29763276" to="25099183_29763276_484528690" />
	<connection from="183817568_60193788_27357721" to="16973242_27357721_2206576617" />
	<connection from="319127949_31447351_1067704559" to="319127948_1067704559_3255369249" />
	<connection from="319127949_31447351_1067704559" to="319127949_1067704559_31447351" />
	<connection from="140143463_1535404429_1535405924" to="276847417_1535405924_1535406346" />
	<connection from="140143463_1535404429_1535405924" to="218184015_1535405924_31276992" />
	<connection from="772083372_3151377224_7207738415" to="940714735_7207738415_6186318802" />
	<connection from="772083372_3151377224_7207738415" to="772083372_7207738415_3151377224" />
	<connection from="32888928_370426130_370685089" to="32524392_370685089_10840350430" />
	<connection from="32888928_370426130_370685089" to="32888928_370685089_370426130" />
	<connection from="32888928_370426130_370685089" to="32524392_370685089_370685073" />
	<connection from="480524948_27357711_4735167035" to="480524948_4735167035_27357711" />
	<connection from="480524948_27357711_4735167035" to="210579057_4735167035_1069458630" />
	<connection from="276847417_1535406346_1535405924" to="276847417_1535405924_1535406346" />
	<connection from="276847417_1535406346_1535405924" to="218184015_1535405924_31276992" />
	<connection from="5135402_353188017_353188010" to="31738562_353188010_355169211" />
	<connection from="5135402_353188017_353188010" to="584358577_353188010_29763235" />
	<connection from="5135402_353188017_353188010" to="5135402_353188010_353188017" />
	<connection from="38188052_449735035_449735089" to="38188052_449735089_449735035" />
	<connection from="642023473_1627094366_26968394" to="642023473_26968394_1627094366" />
	<connection from="642023473_1627094366_26968394" to="239223111_26968394_313822476" />
	<connection from="642023473_1627094366_26968394" to="642023479_26968394_313824851" />
	<connection from="37564441_484528701_484528664" to="40202019_484528664_484528680" />
	<connection from="37564441_484528701_484528664" to="37564441_484528664_484528701" />
	<connection from="37564441_484528701_484528664" to="37564441_484528664_484528726" />
	<connection from="5135396_30914875_30914890" to="5135396_30914890_449735048" />
	<connection from="5135396_30914875_30914890" to="149759036_30914890_1627094310" />
	<connection from="5135396_30914875_30914890" to="5135396_30914890_30914875" />
	<connection from="642023474_1627094366_313824838" to="149758947_313824838_1067704574" />
	<connection from="642023474_1627094366_313824838" to="642023474_313824838_1627094366" />
	<connection from="854209023_26969553_26969554" to="854209023_26969554_26969553" />
	<connection from="854209023_26969553_26969554" to="28637317_26969554_4631821372" />
	<connection from="32524392_10840350429_29093024" to="1292444654_29093024_300473057" />
	<connection from="32524392_10840350429_29093024" to="32524392_29093024_10840350429" />
	<connection from="32524392_10840350429_29093024" to="4851868_29093024_1535406346" />
	<connection from="32524392_10840350429_29093024" to="479478568_29093024_4725688530" />
	<connection from="154492458_2696141959_60193755" to="319127953_60193755_7204756120" />
	<connection from="154492458_2696141959_60193755" to="27634764_60193755_60193752" />
	<connection from="154492458_2696141959_60193755" to="183818854_60193755_5301860921" />
	<connection from="154492458_2696141959_60193755" to="154492458_60193755_2696141959" />
	<connection from="56982635_1531251445_27124728" to="146181598_27124728_1531251544" />
	<connection from="56982635_1531251445_27124728" to="56982635_27124728_1531251445" />
	<connection from="56982635_1531251445_27124728" to="56982635_27124728_31276953" />
	<connection from="25099183_29763276_484528690" to="1031510376_484528690_30914869" />
	<connection from="25099183_29763276_484528690" to="25099183_484528690_29763276" />
	<connection from="4851874_31276998_31277004" to="4851874_31277004_31276998" />
	<connection from="4813593_29653589_29653590" to="5135415_29653590_29653595" />
	<connection from="4813593_29653589_29653590" to="4813593_29653590_29653589" />
	<connection from="4813593_29653589_29653590" to="853201233_29653590_369664918" />
	<connection from="4851874_31276998_31277006" to="4851874_31277006_31276999" />
	<connection from="4851874_31276998_31277006" to="4851874_31277006_31276998" />
	<connection from="4851874_31276998_31277006" to="4851872_31277006_31277007" />
	<connection from="212289346_340999147_29763245" to="212289346_29763245_30914904" />
	<connection from="212289346_340999147_29763245" to="5135396_29763245_449735048" />
	<connection from="212289346_340999147_29763245" to="212289346_29763245_340999147" />
	<connection from="30911294_343634785_340999855" to="37562757_340999855_30914874" />
	<connection from="30911294_343634785_340999855" to="30911294_340999855_343634785" />
	<connection from="30911294_343634785_340999855" to="5135398_340999855_30914872" />
	<connection from="771759429_7204756100_7204756101" to="22530032_7204756101_31447346" />
	<connection from="771759429_7204756100_7204756101" to="771759428_7204756101_60193764" />
	<connection from="263934942_29403259_248599487" to="152179046_248599487_2634549481" />
	<connection from="263934942_29403259_248599487" to="263934942_248599487_29403259" />
	<connection from="263934942_29403259_248599487" to="772083373_248599487_7207738419" />
	<connection from="319127927_3255369255_26968391" to="319127927_26968391_3255369255" />
	<connection from="319127927_3255369255_26968391" to="4847834_26968391_1067716447" />
	<connection from="319127927_3255369255_26968391" to="319127925_26968391_3255369251" />
	<connection from="139722533_1531251443_1531251439" to="853201234_1531251439_27124725" />
	<connection from="139722533_1531251443_1531251439" to="853201234_1531251439_1531251445" />
	<connection from="139722533_1531251443_1531251439" to="139722533_1531251439_1531251443" />
	<connection from="256144798_6045187260_26968750" to="256144798_26968750_6045187260" />
	<connection from="256144798_6045187260_26968750" to="642023476_26968750_313822481" />
	<connection from="256144798_6045187260_26968750" to="239223109_26968750_26968360" />
	<connection from="468705233_314742950_26969553" to="468705233_26969553_314742950" />
	<connection from="468705233_314742950_26969553" to="854209023_26969553_26969554" />
	<connection from="151893069_1535404429_1647307501" to="151893069_1647307501_1535404429" />
	<connection from="319127949_1067704559_31447351" to="319127949_31447351_1067704559" />
	<connection from="319127949_1067704559_31447351" to="472932175_31447351_7800348624" />
	<connection from="319127949_1067704559_31447351" to="319127949_31447351_1067737355" />
	<connection from="319127949_1067704559_31447351" to="39436945_31447351_31447352" />
	<connection from="27634764_60193752_60193755" to="319127953_60193755_7204756120" />
	<connection from="27634764_60193752_60193755" to="27634764_60193755_60193752" />
	<connection from="27634764_60193752_60193755" to="183818854_60193755_5301860921" />
	<connection from="27634764_60193752_60193755" to="154492458_60193755_2696141959" />
	<connection from="242359993_1627094462_26969554" to="854209023_26969554_26969553" />
	<connection from="242359993_1627094462_26969554" to="28637317_26969554_4631821372" />
	<connection from="479478568_29093024_4725688530" to="479478568_4725688530_29093024" />
	<connection from="479478568_29093024_4725688530" to="32805225_4725688530_254863685" />
	<connection from="149759047_30914863_609079363" to="547923968_609079363_1535403475" />
	<connection from="149759047_30914863_609079363" to="149759047_609079363_30914865" />
	<connection from="149759047_30914863_609079363" to="149759047_609079363_30914863" />
	<connection from="149759047_30914863_609079363" to="47896381_609079363_609079394" />
	<connection from="37562757_30914874_340999855" to="37562757_340999855_30914874" />
	<connection from="37562757_30914874_340999855" to="30911294_340999855_343634785" />
	<connection from="37562757_30914874_340999855" to="5135398_340999855_30914872" />
	<connection from="32888931_370426130_370426168" to="32888931_370426168_370426130" />
	<connection from="327060232_4735145765_1627094657" to="327060232_1627094657_4735145765" />
	<connection from="327060232_4735145765_1627094657" to="149758956_1627094657_609079379" />
	<connection from="151893070_1647307574_1647307427" to="151893070_1647307427_1647307574" />
	<connection from="4851871_31276997_31277003" to="4851871_31277003_31276997" />
	<connection from="4851872_31277007_31277006" to="4851874_31277006_31276999" />
	<connection from="4851872_31277007_31277006" to="4851874_31277006_31276998" />
	<connection from="4851872_31277007_31277006" to="4851872_31277006_31277007" />
	<connection from="5135398_1624766181_484528701" to="37564441_484528701_484528664" />
	<connection from="5135398_1624766181_484528701" to="5135398_484528701_1624766181" />
	<connection from="5135398_1624766181_484528701" to="785833015_484528701_30914869" />
	<connection from="56982667_1654603939_29763233" to="39430702_29763233_484528706" />
	<connection from="56982667_1654603939_29763233" to="56982659_29763233_29763234" />
	<connection from="56982667_1654603939_29763233" to="56982667_29763233_1654603939" />
	<connection from="149512796_340999940_1624766204" to="149512796_1624766204_340999940" />
	<connection from="319127954_1942384050_493343919" to="263933585_493343919_60193777" />
	<connection from="1292444654_31276992_29402376" to="480483211_29402376_4734809614" />
	<connection from="1292444654_31276992_29402376" to="149758956_29402376_609079379" />
	<connection from="1292444654_31276992_29402376" to="1292444654_29402376_31276992" />
	<connection from="24655790_27357711_26968380" to="778949578_26968380_26968379" />
	<connection from="92087463_26968391_3255369249" to="92087463_3255369249_26968391" />
	<connection from="92087463_26968391_3255369249" to="319127948_3255369249_1067704559" />
	<connection from="34407885_314742950_4944853980" to="34407885_4944853980_314742950" />
	<connection from="34407885_314742950_4944853980" to="504314832_4944853980_26969550" />
	<connection from="47896376_609079382_1648242908" to="47896376_1648242908_609079382" />
	<connection from="47896376_609079382_1648242908" to="151992701_1648242908_1648242885" />
	<connection from="47896376_609079382_1648242908" to="47896376_1648242908_609079379" />
	<connection from="5135396_29763245_449735048" to="38188046_449735048_449735057" />
	<connection from="5135396_29763245_449735048" to="5135396_449735048_30914890" />
	<connection from="5135396_29763245_449735048" to="5135396_449735048_29763245" />
	<connection from="5135395_1654605094_30914904" to="212289346_30914904_29763245" />
	<connection from="5135395_1654605094_30914904" to="56982632_30914904_343633816" />
	<connection from="5135395_1654605094_30914904" to="5135395_30914904_1654605094" />
	<connection from="30911337_343635135_343634785" to="30911294_343634785_343634786" />
	<connection from="30911337_343635135_343634785" to="30911294_343634785_340999855" />
	<connection from="30911337_343635135_343634785" to="30911337_343634785_343635135" />
	<connection from="638322182_6016135995_60193752" to="27634764_60193752_60193755" />
	<connection from="319127949_31447351_1067737355" to="319127949_1067737355_31447351" />
	<connection from="319127949_31447351_1067737355" to="92087515_1067737355_31447344" />
	<connection from="23536185_254863695_254863685" to="32805225_254863685_369664908" />
	<connection from="23536185_254863695_254863685" to="32805225_254863685_4725688530" />
	<connection from="23536185_254863695_254863685" to="23536185_254863685_254863695" />
	<connection from="39430702_29763233_484528706" to="39430702_484528706_29763233" />
	<connection from="39430702_29763233_484528706" to="39430702_484528706_484528670" />
	<connection from="39430702_29763233_484528706" to="40202022_484528706_484528726" />
	<connection from="151992697_609079394_1648242542" to="151992697_1648242542_609079394" />
	<connection from="210579057_4735167035_1069458630" to="480527022_1069458630_27357714" />
	<connection from="239223115_26968401_26968405" to="239223115_26968405_26968401" />
	<connection from="239223115_26968401_26968405" to="239223113_26968405_5847463989" />
	<connection from="56982659_29763234_29763233" to="39430702_29763233_484528706" />
	<connection from="56982659_29763234_29763233" to="56982659_29763233_29763234" />
	<connection from="56982659_29763234_29763233" to="56982667_29763233_1654603939" />
	<connection from="5135396_449735048_30914890" to="5135396_30914890_449735048" />
	<connection from="5135396_449735048_30914890" to="149759036_30914890_1627094310" />
	<connection from="5135396_449735048_30914890" to="5135396_30914890_30914875" />
	<connection from="32805226_369664904_369664908" to="32805226_369664908_369664904" />
	<connection from="32805226_369664904_369664908" to="32805225_369664908_254863685" />
	<connection from="319127939_3255369246_27357733" to="319127939_27357733_3255369246" />
	<connection from="149758956_609079379_1627094657" to="327060232_1627094657_4735145765" />
	<connection from="149758956_609079379_1627094657" to="149758956_1627094657_609079379" />
	<connection from="1031510357_29763276_484528670" to="1031510357_484528670_29763276" />
	<connection from="1031510357_29763276_484528670" to="39430702_484528670_484528706" />
	<connection from="37564441_484528726_484528664" to="40202019_484528664_484528680" />
	<connection from="37564441_484528726_484528664" to="37564441_484528664_484528701" />
	<connection from="37564441_484528726_484528664" to="37564441_484528664_484528726" />
	<connection from="467315046_1627094321_1627094326" to="319127926_1627094326_3255369251" />
	<connection from="467315046_1627094321_1627094326" to="467315046_1627094326_1627094321" />
	<connection from="92087463_3255369249_26968391" to="92087463_26968391_3255369249" />
	<connection from="92087463_3255369249_26968391" to="319127927_26968391_3255369255" />
	<connection from="92087463_3255369249_26968391" to="4847834_26968391_1067716447" />
	<connection from="92087463_3255369249_26968391" to="319127925_26968391_3255369251" />
	<connection from="991667348_1535403010_31276998" to="4851874_31276998_31277004" />
	<connection from="991667348_1535403010_31276998" to="4851874_31276998_31277006" />
	<connection from="991667348_1535403010_31276998" to="991667348_31276998_1535403010" />
	<connection from="991667348_1535403010_31276998" to="991667348_31276998_31276997" />
	<connection from="772083373_7207738419_248599487" to="152179046_248599487_2634549481" />
	<connection from="772083373_7207738419_248599487" to="263934942_248599487_29403259" />
	<connection from="772083373_7207738419_248599487" to="772083373_248599487_7207738419" />
	<connection from="31564408_353188017_353188080" to="31564408_353188080_353188017" />
	<connection from="479483653_1647307574_4725748727" to="479483654_4725748727_300473063" />
	<connection from="479483653_1647307574_4725748727" to="479483653_4725748727_1647307574" />
	<connection from="319127925_26968391_3255369251" to="319127926_3255369251_1627094326" />
	<connection from="875548618_74152840_7428475358" to="309792448_7428475358_3151377224" />
	<connection from="875548618_74152840_7428475358" to="875548618_7428475358_74152840" />
	<connection from="32524392_10840350430_10840350429" to="32524392_10840350429_10840350430" />
	<connection from="32524392_10840350430_10840350429" to="32524392_10840350429_29093024" />
	<connection from="212289346_30914904_29763245" to="212289346_29763245_30914904" />
	<connection from="212289346_30914904_29763245" to="5135396_29763245_449735048" />
	<connection from="212289346_30914904_29763245" to="212289346_29763245_340999147" />
	<connection from="4813593_31276953_29653589" to="4813593_29653589_31276953" />
	<connection from="4813593_31276953_29653589" to="4813593_29653589_29653590" />
	<connection from="4813593_31276953_29653589" to="4662766_29653589_27124723" />
	<connection from="940714735_6186318802_7207738415" to="940714735_7207738415_6186318802" />
	<connection from="940714735_6186318802_7207738415" to="772083372_7207738415_3151377224" />
	<connection from="5135396_449735048_29763245" to="212289346_29763245_30914904" />
	<connection from="5135396_449735048_29763245" to="5135396_29763245_449735048" />
	<connection from="5135396_449735048_29763245" to="212289346_29763245_340999147" />
	<connection from="480522568_29092984_4735145765" to="327060232_4735145765_1627094657" />
	<connection from="480522568_29092984_4735145765" to="480522568_4735145765_29092984" />
	<connection from="47896381_609079394_609079395" to="151992693_609079395_1648242826" />
	<connection from="47896381_609079394_609079395" to="47896381_609079395_609079394" />
	<connection from="47896381_609079394_609079395" to="47896381_609079395_609079382" />
	<connection from="853201233_369664918_29653590" to="5135415_29653590_29653595" />
	<connection from="853201233_369664918_29653590" to="4813593_29653590_29653589" />
	<connection from="853201233_369664918_29653590" to="853201233_29653590_369664918" />
	<connection from="37564441_30914873_484528726" to="37564441_484528726_30914873" />
	<connection from="37564441_30914873_484528726" to="40202022_484528726_484528706" />
	<connection from="37564441_30914873_484528726" to="37564441_484528726_484528664" />
	<connection from="268263875_7221289278_29763275" to="25099012_29763275_29763276" />
	<connection from="268263875_7221289278_29763275" to="268263875_29763275_7221289278" />
	<connection from="5135398_1624766181_340999940" to="149512796_340999940_1624766204" />
	<connection from="5135398_1624766181_340999940" to="5135398_340999940_30914872" />
	<connection from="5135398_1624766181_340999940" to="30797960_340999940_341000053" />
	<connection from="5135398_1624766181_340999940" to="5135398_340999940_1624766181" />
	<connection from="56982635_27124728_31276953" to="4813593_31276953_29653589" />
	<connection from="56982635_27124728_31276953" to="56982635_31276953_27124728" />
	<connection from="56982635_27124728_31276953" to="56982673_31276953_31276952" />
	<connection from="218184015_31276992_1535405924" to="276847417_1535405924_1535406346" />
	<connection from="218184015_31276992_1535405924" to="218184015_1535405924_31276992" />
	<connection from="91886868_493343902_1067737463" to="92087490_1067737463_493343901" />
	<connection from="91886868_493343902_1067737463" to="39117517_1067737463_31447349" />
	<connection from="149759036_1627094310_30914890" to="5135396_30914890_449735048" />
	<connection from="149759036_1627094310_30914890" to="149759036_30914890_1627094310" />